Circuit: * C:\Users\Laurent\Documents\git_z180\hardware\mio\sound\Draft1.asc

V2: Removing PWL point (6.25e-008,0)
V2: Removing PWL point (0.000176063,0)
V2: Removing PWL point (0.000192063,0)
V2: Removing PWL point (0.000208063,0)
V2: Removing PWL point (0.000224063,0)
V2: Removing PWL point (0.000240062,0)
V2: Removing PWL point (0.000256063,0)
V2: Removing PWL point (0.000272063,0)
V2: Removing PWL point (0.000288063,0)
V2: Removing PWL point (0.000304063,0)
V2: Removing PWL point (0.000320062,0)
V2: Removing PWL point (0.000328063,0)
V2: Removing PWL point (0.000336062,0)
V2: Removing PWL point (0.000344063,0)
V2: Removing PWL point (0.000352063,0)
V2: Removing PWL point (0.000360062,0)
V2: Removing PWL point (0.000368063,0)
V2: Removing PWL point (0.000376062,0)
V2: Removing PWL point (0.000384063,0)
V2: Removing PWL point (0.000392063,0)
V2: Removing PWL point (0.000400062,0)
V2: Removing PWL point (0.000408063,0)
V2: Removing PWL point (0.000416062,0)
V2: Removing PWL point (0.000424063,0)
V2: Removing PWL point (0.000432062,0)
V2: Removing PWL point (0.000440063,0)
V2: Removing PWL point (0.000448063,0)
V2: Removing PWL point (0.000456062,0)
V2: Removing PWL point (0.000464063,0)
V2: Removing PWL point (0.000472062,0)
V2: Removing PWL point (0.000480063,0)
V2: Removing PWL point (0.000485437,0)
V2: Removing PWL point (0.00049075,0)
V2: Removing PWL point (0.000496062,0)
V2: Removing PWL point (0.000501438,0)
V2: Removing PWL point (0.00050675,0)
V2: Removing PWL point (0.000512063,0)
V2: Removing PWL point (0.000517437,0)
V2: Removing PWL point (0.00052275,0)
V2: Removing PWL point (0.000528062,0)
V2: Removing PWL point (0.000533437,0)
V2: Removing PWL point (0.00053875,0)
V2: Removing PWL point (0.000544062,0)
V2: Removing PWL point (0.000549438,0)
V2: Removing PWL point (0.00055475,0)
V2: Removing PWL point (0.000560063,0)
V2: Removing PWL point (0.000565437,0)
V2: Removing PWL point (0.00057075,0)
V2: Removing PWL point (0.000576062,0)
V2: Removing PWL point (0.000581438,0)
V2: Removing PWL point (0.00058675,0)
V2: Removing PWL point (0.000592063,0)
V2: Removing PWL point (0.000597437,0)
V2: Removing PWL point (0.00060275,0)
V2: Removing PWL point (0.000608062,0)
V2: Removing PWL point (0.000613438,0)
V2: Removing PWL point (0.00061875,0)
V2: Removing PWL point (0.000624063,0)
V2: Removing PWL point (0.000629438,0)
V2: Removing PWL point (0.00063475,0)
V2: Removing PWL point (0.000640063,0)
V2: Removing PWL point (0.000644063,0)
V2: Removing PWL point (0.000648062,0)
V2: Removing PWL point (0.000652062,0)
V2: Removing PWL point (0.000656062,0)
V2: Removing PWL point (0.000660062,0)
V2: Removing PWL point (0.000664063,0)
V2: Removing PWL point (0.000668063,0)
V2: Removing PWL point (0.000672063,0)
V2: Removing PWL point (0.000676063,0)
V2: Removing PWL point (0.000680063,0)
V2: Removing PWL point (0.000684062,0)
V2: Removing PWL point (0.000688062,0)
V2: Removing PWL point (0.000692062,0)
V2: Removing PWL point (0.000696062,0)
V2: Removing PWL point (0.000700062,0)
V2: Removing PWL point (0.000704063,0)
V2: Removing PWL point (0.000708063,0)
V2: Removing PWL point (0.000712063,0)
V2: Removing PWL point (0.000716063,0)
V2: Removing PWL point (0.000720063,0)
V2: Removing PWL point (0.000724062,0)
V2: Removing PWL point (0.000728062,0)
V2: Removing PWL point (0.000732062,0)
V2: Removing PWL point (0.000736062,0)
V2: Removing PWL point (0.000740063,0)
V2: Removing PWL point (0.000744063,0)
V2: Removing PWL point (0.000748063,0)
V2: Removing PWL point (0.000752063,0)
V2: Removing PWL point (0.000756063,0)
V2: Removing PWL point (0.000760063,0)
V2: Removing PWL point (0.000764062,0)
V2: Removing PWL point (0.000768062,0)
V2: Removing PWL point (0.000772062,0)
V2: Removing PWL point (0.000776062,0)
V2: Removing PWL point (0.000780063,0)
V2: Removing PWL point (0.000784063,0)
V2: Removing PWL point (0.000788063,0)
V2: Removing PWL point (0.000792063,0)
V2: Removing PWL point (0.000796063,0)
V2: Removing PWL point (0.000800062,0)
V2: Removing PWL point (0.000803312,0)
V2: Removing PWL point (0.0008065,0)
V2: Removing PWL point (0.000809687,0)
V2: Removing PWL point (0.000812875,0)
V2: Removing PWL point (0.000816062,0)
V2: Removing PWL point (0.000819313,0)
V2: Removing PWL point (0.0008225,0)
V2: Removing PWL point (0.000825688,0)
V2: Removing PWL point (0.000828875,0)
V2: Removing PWL point (0.000832063,0)
V2: Removing PWL point (0.000835313,0)
V2: Removing PWL point (0.0008385,0)
V2: Removing PWL point (0.000841687,0)
V2: Removing PWL point (0.000844875,0)
V2: Removing PWL point (0.000848062,0)
V2: Removing PWL point (0.000851312,0)
V2: Removing PWL point (0.0008545,0)
V2: Removing PWL point (0.000857688,0)
V2: Removing PWL point (0.000860875,0)
V2: Removing PWL point (0.000864063,0)
V2: Removing PWL point (0.000867313,0)
V2: Removing PWL point (0.0008705,0)
V2: Removing PWL point (0.000873688,0)
V2: Removing PWL point (0.000876875,0)
V2: Removing PWL point (0.000880062,0)
V2: Removing PWL point (0.000883312,0)
V2: Removing PWL point (0.0008865,0)
V2: Removing PWL point (0.000889687,0)
V2: Removing PWL point (0.000892875,0)
V2: Removing PWL point (0.000896063,0)
V2: Removing PWL point (0.000899313,0)
V2: Removing PWL point (0.0009025,0)
V2: Removing PWL point (0.000905688,0)
V2: Removing PWL point (0.000908875,0)
V2: Removing PWL point (0.000912063,0)
V2: Removing PWL point (0.000915313,0)
V2: Removing PWL point (0.0009185,0)
V2: Removing PWL point (0.000921687,0)
V2: Removing PWL point (0.000924875,0)
V2: Removing PWL point (0.000928062,0)
V2: Removing PWL point (0.000931312,0)
V2: Removing PWL point (0.0009345,0)
V2: Removing PWL point (0.000937688,0)
V2: Removing PWL point (0.000940875,0)
V2: Removing PWL point (0.000944063,0)
V2: Removing PWL point (0.000947313,0)
V2: Removing PWL point (0.0009505,0)
V2: Removing PWL point (0.000953688,0)
V2: Removing PWL point (0.000956875,0)
V2: Removing PWL point (0.000960062,0)
V2: Removing PWL point (0.00096275,0)
V2: Removing PWL point (0.000965438,0)
V2: Removing PWL point (0.000968062,0)
V2: Removing PWL point (0.00097075,0)
V2: Removing PWL point (0.000973438,0)
V2: Removing PWL point (0.000976063,0)
V2: Removing PWL point (0.00097875,0)
V2: Removing PWL point (0.000981438,0)
V2: Removing PWL point (0.000984062,0)
V2: Removing PWL point (0.00098675,0)
V2: Removing PWL point (0.000989438,0)
V2: Removing PWL point (0.000992063,0)
V2: Removing PWL point (0.00099475,0)
V2: Removing PWL point (0.000997438,0)
V2: Removing PWL point (0.00100006,0)
V2: Removing PWL point (0.00100275,0)
V2: Removing PWL point (0.00100544,0)
V2: Removing PWL point (0.00100806,0)
V2: Removing PWL point (0.00101075,0)
V2: Removing PWL point (0.00101344,0)
V2: Removing PWL point (0.00101606,0)
V2: Removing PWL point (0.00101875,0)
V2: Removing PWL point (0.00102144,0)
V2: Removing PWL point (0.00102406,0)
V2: Removing PWL point (0.00102675,0)
V2: Removing PWL point (0.00102944,0)
V2: Removing PWL point (0.00103206,0)
V2: Removing PWL point (0.00103475,0)
V2: Removing PWL point (0.00103744,0)
V2: Removing PWL point (0.00104006,0)
V2: Removing PWL point (0.00104275,0)
V2: Removing PWL point (0.00104544,0)
V2: Removing PWL point (0.00104806,0)
V2: Removing PWL point (0.00105075,0)
V2: Removing PWL point (0.00105344,0)
V2: Removing PWL point (0.00105606,0)
V2: Removing PWL point (0.00105875,0)
V2: Removing PWL point (0.00106144,0)
V2: Removing PWL point (0.00106406,0)
V2: Removing PWL point (0.00106675,0)
V2: Removing PWL point (0.00106944,0)
V2: Removing PWL point (0.00107206,0)
V2: Removing PWL point (0.00107475,0)
V2: Removing PWL point (0.00107744,0)
V2: Removing PWL point (0.00108006,0)
V2: Removing PWL point (0.00108275,0)
V2: Removing PWL point (0.00108544,0)
V2: Removing PWL point (0.00108806,0)
V2: Removing PWL point (0.00109075,0)
V2: Removing PWL point (0.00109344,0)
V2: Removing PWL point (0.00109606,0)
V2: Removing PWL point (0.00109875,0)
V2: Removing PWL point (0.00110144,0)
V2: Removing PWL point (0.00110406,0)
V2: Removing PWL point (0.00110675,0)
V2: Removing PWL point (0.00110944,0)
V2: Removing PWL point (0.00111206,0)
V2: Removing PWL point (0.00111475,0)
V2: Removing PWL point (0.00111744,0)
V2: Removing PWL point (0.00112006,0)
V2: Removing PWL point (0.00112237,0)
V2: Removing PWL point (0.00112469,0)
V2: Removing PWL point (0.00112694,0)
V2: Removing PWL point (0.00112925,0)
V2: Removing PWL point (0.0011315,0)
V2: Removing PWL point (0.00113381,0)
V2: Removing PWL point (0.00113606,0)
V2: Removing PWL point (0.00113838,0)
V2: Removing PWL point (0.00114069,0)
V2: Removing PWL point (0.00114294,0)
V2: Removing PWL point (0.00114525,0)
V2: Removing PWL point (0.0011475,0)
V2: Removing PWL point (0.00114981,0)
V2: Removing PWL point (0.00115206,0)
V2: Removing PWL point (0.00115438,0)
V2: Removing PWL point (0.00115669,0)
V2: Removing PWL point (0.00115894,0)
V2: Removing PWL point (0.00116125,0)
V2: Removing PWL point (0.0011635,0)
V2: Removing PWL point (0.00116581,0)
V2: Removing PWL point (0.00116806,0)
V2: Removing PWL point (0.00117038,0)
V2: Removing PWL point (0.00117269,0)
V2: Removing PWL point (0.00117494,0)
V2: Removing PWL point (0.00117725,0)
V2: Removing PWL point (0.0011795,0)
V2: Removing PWL point (0.00118181,0)
V2: Removing PWL point (0.00118406,0)
V2: Removing PWL point (0.00118637,0)
V2: Removing PWL point (0.00118869,0)
V2: Removing PWL point (0.00119094,0)
V2: Removing PWL point (0.00119325,0)
V2: Removing PWL point (0.0011955,0)
V2: Removing PWL point (0.00119781,0)
V2: Removing PWL point (0.00120006,0)
V2: Removing PWL point (0.00120238,0)
V2: Removing PWL point (0.00120469,0)
V2: Removing PWL point (0.00120694,0)
V2: Removing PWL point (0.00120925,0)
V2: Removing PWL point (0.0012115,0)
V2: Removing PWL point (0.00121381,0)
V2: Removing PWL point (0.00121606,0)
V2: Removing PWL point (0.00121838,0)
V2: Removing PWL point (0.00122069,0)
V2: Removing PWL point (0.00122294,0)
V2: Removing PWL point (0.00122525,0)
V2: Removing PWL point (0.0012275,0)
V2: Removing PWL point (0.00122981,0)
V2: Removing PWL point (0.00123206,0)
V2: Removing PWL point (0.00123438,0)
V2: Removing PWL point (0.00123669,0)
V2: Removing PWL point (0.00123894,0)
V2: Removing PWL point (0.00124125,0)
V2: Removing PWL point (0.0012435,0)
V2: Removing PWL point (0.00124581,0)
V2: Removing PWL point (0.00124806,0)
V2: Removing PWL point (0.00125038,0)
V2: Removing PWL point (0.00125269,0)
V2: Removing PWL point (0.00125494,0)
V2: Removing PWL point (0.00125725,0)
V2: Removing PWL point (0.0012595,0)
V2: Removing PWL point (0.00126181,0)
V2: Removing PWL point (0.00126406,0)
V2: Removing PWL point (0.00126637,0)
V2: Removing PWL point (0.00126869,0)
V2: Removing PWL point (0.00127094,0)
V2: Removing PWL point (0.00127325,0)
V2: Removing PWL point (0.0012755,0)
V2: Removing PWL point (0.00127781,0)
V2: Removing PWL point (0.00128006,0)
V2: Removing PWL point (0.00128206,0)
V2: Removing PWL point (0.00128406,0)
V2: Removing PWL point (0.00128606,0)
V2: Removing PWL point (0.00128806,0)
V2: Removing PWL point (0.00129006,0)
V2: Removing PWL point (0.00129206,0)
V2: Removing PWL point (0.00129406,0)
V2: Removing PWL point (0.00129606,0)
V2: Removing PWL point (0.00129806,0)
V2: Removing PWL point (0.00130006,0)
V2: Removing PWL point (0.00130206,0)
V2: Removing PWL point (0.00130406,0)
V2: Removing PWL point (0.00130606,0)
V2: Removing PWL point (0.00130806,0)
V2: Removing PWL point (0.00131006,0)
V2: Removing PWL point (0.00131206,0)
V2: Removing PWL point (0.00131406,0)
V2: Removing PWL point (0.00131606,0)
V2: Removing PWL point (0.00131806,0)
V2: Removing PWL point (0.00132006,0)
V2: Removing PWL point (0.00132206,0)
V2: Removing PWL point (0.00132406,0)
V2: Removing PWL point (0.00132606,0)
V2: Removing PWL point (0.00132806,0)
V2: Removing PWL point (0.00133006,0)
V2: Removing PWL point (0.00133206,0)
V2: Removing PWL point (0.00133406,0)
V2: Removing PWL point (0.00133606,0)
V2: Removing PWL point (0.00133806,0)
V2: Removing PWL point (0.00134006,0)
V2: Removing PWL point (0.00134206,0)
V2: Removing PWL point (0.00134406,0)
V2: Removing PWL point (0.00134606,0)
V2: Removing PWL point (0.00134806,0)
V2: Removing PWL point (0.00135006,0)
V2: Removing PWL point (0.00135206,0)
V2: Removing PWL point (0.00135406,0)
V2: Removing PWL point (0.00135606,0)
V2: Removing PWL point (0.00135806,0)
V2: Removing PWL point (0.00136006,0)
V2: Removing PWL point (0.00136206,0)
V2: Removing PWL point (0.00136406,0)
V2: Removing PWL point (0.00136606,0)
V2: Removing PWL point (0.00136806,0)
V2: Removing PWL point (0.00137006,0)
V2: Removing PWL point (0.00137206,0)
V2: Removing PWL point (0.00137406,0)
V2: Removing PWL point (0.00137606,0)
V2: Removing PWL point (0.00137806,0)
V2: Removing PWL point (0.00138006,0)
V2: Removing PWL point (0.00138206,0)
V2: Removing PWL point (0.00138406,0)
V2: Removing PWL point (0.00138606,0)
V2: Removing PWL point (0.00138806,0)
V2: Removing PWL point (0.00139006,0)
V2: Removing PWL point (0.00139206,0)
V2: Removing PWL point (0.00139406,0)
V2: Removing PWL point (0.00139606,0)
V2: Removing PWL point (0.00139806,0)
V2: Removing PWL point (0.00140006,0)
V2: Removing PWL point (0.00140206,0)
V2: Removing PWL point (0.00140406,0)
V2: Removing PWL point (0.00140606,0)
V2: Removing PWL point (0.00140806,0)
V2: Removing PWL point (0.00141006,0)
V2: Removing PWL point (0.00141206,0)
V2: Removing PWL point (0.00141406,0)
V2: Removing PWL point (0.00141606,0)
V2: Removing PWL point (0.00141806,0)
V2: Removing PWL point (0.00142006,0)
V2: Removing PWL point (0.00142206,0)
V2: Removing PWL point (0.00142406,0)
V2: Removing PWL point (0.00142606,0)
V2: Removing PWL point (0.00142806,0)
V2: Removing PWL point (0.00143006,0)
V2: Removing PWL point (0.00143206,0)
V2: Removing PWL point (0.00143406,0)
V2: Removing PWL point (0.00143606,0)
V2: Removing PWL point (0.00143806,0)
V2: Removing PWL point (0.00144006,0)
V2: Removing PWL point (0.00144188,0)
V2: Removing PWL point (0.00144363,0)
V2: Removing PWL point (0.00144544,0)
V2: Removing PWL point (0.00144719,0)
V2: Removing PWL point (0.001449,0)
V2: Removing PWL point (0.00145075,0)
V2: Removing PWL point (0.00145256,0)
V2: Removing PWL point (0.00145431,0)
V2: Removing PWL point (0.00145606,0)
V2: Removing PWL point (0.00145788,0)
V2: Removing PWL point (0.00145963,0)
V2: Removing PWL point (0.00146144,0)
V2: Removing PWL point (0.00146319,0)
V2: Removing PWL point (0.001465,0)
V2: Removing PWL point (0.00146675,0)
V2: Removing PWL point (0.00146856,0)
V2: Removing PWL point (0.00147031,0)
V2: Removing PWL point (0.00147206,0)
V2: Removing PWL point (0.00147387,0)
V2: Removing PWL point (0.00147562,0)
V2: Removing PWL point (0.00147744,0)
V2: Removing PWL point (0.00147919,0)
V2: Removing PWL point (0.001481,0)
V2: Removing PWL point (0.00148275,0)
V2: Removing PWL point (0.00148456,0)
V2: Removing PWL point (0.00148631,0)
V2: Removing PWL point (0.00148806,0)
V2: Removing PWL point (0.00148988,0)
V2: Removing PWL point (0.00149162,0)
V2: Removing PWL point (0.00149344,0)
V2: Removing PWL point (0.00149519,0)
V2: Removing PWL point (0.001497,0)
V2: Removing PWL point (0.00149875,0)
V2: Removing PWL point (0.00150056,0)
V2: Removing PWL point (0.00150231,0)
V2: Removing PWL point (0.00150406,0)
V2: Removing PWL point (0.00150588,0)
V2: Removing PWL point (0.00150763,0)
V2: Removing PWL point (0.00150944,0)
V2: Removing PWL point (0.00151119,0)
V2: Removing PWL point (0.001513,0)
V2: Removing PWL point (0.00151475,0)
V2: Removing PWL point (0.00151656,0)
V2: Removing PWL point (0.00151831,0)
V2: Removing PWL point (0.00152006,0)
V2: Removing PWL point (0.00152188,0)
V2: Removing PWL point (0.00152363,0)
V2: Removing PWL point (0.00152544,0)
V2: Removing PWL point (0.00152719,0)
V2: Removing PWL point (0.001529,0)
V2: Removing PWL point (0.00153075,0)
V2: Removing PWL point (0.00153256,0)
V2: Removing PWL point (0.00153431,0)
V2: Removing PWL point (0.00153606,0)
V2: Removing PWL point (0.00153788,0)
V2: Removing PWL point (0.00153963,0)
V2: Removing PWL point (0.00154144,0)
V2: Removing PWL point (0.00154319,0)
V2: Removing PWL point (0.001545,0)
V2: Removing PWL point (0.00154675,0)
V2: Removing PWL point (0.00154856,0)
V2: Removing PWL point (0.00155031,0)
V2: Removing PWL point (0.00155206,0)
V2: Removing PWL point (0.00155387,0)
V2: Removing PWL point (0.00155562,0)
V2: Removing PWL point (0.00155744,0)
V2: Removing PWL point (0.00155919,0)
V2: Removing PWL point (0.001561,0)
V2: Removing PWL point (0.00156275,0)
V2: Removing PWL point (0.00156456,0)
V2: Removing PWL point (0.00156631,0)
V2: Removing PWL point (0.00156806,0)
V2: Removing PWL point (0.00156988,0)
V2: Removing PWL point (0.00157163,0)
V2: Removing PWL point (0.00157344,0)
V2: Removing PWL point (0.00157519,0)
V2: Removing PWL point (0.001577,0)
V2: Removing PWL point (0.00157875,0)
V2: Removing PWL point (0.00158056,0)
V2: Removing PWL point (0.00158231,0)
V2: Removing PWL point (0.00158406,0)
V2: Removing PWL point (0.00158588,0)
V2: Removing PWL point (0.00158763,0)
V2: Removing PWL point (0.00158944,0)
V2: Removing PWL point (0.00159119,0)
V2: Removing PWL point (0.001593,0)
V2: Removing PWL point (0.00159475,0)
V2: Removing PWL point (0.00159656,0)
V2: Removing PWL point (0.00159831,0)
V2: Removing PWL point (0.00160006,0)
V2: Removing PWL point (0.00160169,0)
V2: Removing PWL point (0.00160331,0)
V2: Removing PWL point (0.00160488,0)
V2: Removing PWL point (0.0016065,0)
V2: Removing PWL point (0.00160806,0)
V2: Removing PWL point (0.00160969,0)
V2: Removing PWL point (0.00161131,0)
V2: Removing PWL point (0.00161287,0)
V2: Removing PWL point (0.0016145,0)
V2: Removing PWL point (0.00161606,0)
V2: Removing PWL point (0.00161769,0)
V2: Removing PWL point (0.00161931,0)
V2: Removing PWL point (0.00162087,0)
V2: Removing PWL point (0.0016225,0)
V2: Removing PWL point (0.00162406,0)
V2: Removing PWL point (0.00162569,0)
V2: Removing PWL point (0.00162731,0)
V2: Removing PWL point (0.00162887,0)
V2: Removing PWL point (0.0016305,0)
V2: Removing PWL point (0.00163206,0)
V2: Removing PWL point (0.00163369,0)
V2: Removing PWL point (0.00163531,0)
V2: Removing PWL point (0.00163688,0)
V2: Removing PWL point (0.0016385,0)
V2: Removing PWL point (0.00164006,0)
V2: Removing PWL point (0.00164169,0)
V2: Removing PWL point (0.00164331,0)
V2: Removing PWL point (0.00164488,0)
V2: Removing PWL point (0.0016465,0)
V2: Removing PWL point (0.00164806,0)
V2: Removing PWL point (0.00164969,0)
V2: Removing PWL point (0.00165131,0)
V2: Removing PWL point (0.00165288,0)
V2: Removing PWL point (0.0016545,0)
V2: Removing PWL point (0.00165606,0)
V2: Removing PWL point (0.00165769,0)
V2: Removing PWL point (0.00165931,0)
V2: Removing PWL point (0.00166088,0)
V2: Removing PWL point (0.0016625,0)
V2: Removing PWL point (0.00166406,0)
V2: Removing PWL point (0.00166569,0)
V2: Removing PWL point (0.00166731,0)
V2: Removing PWL point (0.00166888,0)
V2: Removing PWL point (0.0016705,0)
V2: Removing PWL point (0.00167206,0)
V2: Removing PWL point (0.00167369,0)
V2: Removing PWL point (0.00167531,0)
V2: Removing PWL point (0.00167688,0)
V2: Removing PWL point (0.0016785,0)
V2: Removing PWL point (0.00168006,0)
V2: Removing PWL point (0.00168169,0)
V2: Removing PWL point (0.00168331,0)
V2: Removing PWL point (0.00168488,0)
V2: Removing PWL point (0.0016865,0)
V2: Removing PWL point (0.00168806,0)
V2: Removing PWL point (0.00168969,0)
V2: Removing PWL point (0.00169131,0)
V2: Removing PWL point (0.00169287,0)
V2: Removing PWL point (0.0016945,0)
V2: Removing PWL point (0.00169606,0)
V2: Removing PWL point (0.00169769,0)
V2: Removing PWL point (0.00169931,0)
V2: Removing PWL point (0.00170087,0)
V2: Removing PWL point (0.0017025,0)
V2: Removing PWL point (0.00170406,0)
V2: Removing PWL point (0.00170569,0)
V2: Removing PWL point (0.00170731,0)
V2: Removing PWL point (0.00170888,0)
V2: Removing PWL point (0.0017105,0)
V2: Removing PWL point (0.00171206,0)
V2: Removing PWL point (0.00171369,0)
V2: Removing PWL point (0.00171531,0)
V2: Removing PWL point (0.00171688,0)
V2: Removing PWL point (0.0017185,0)
V2: Removing PWL point (0.00172006,0)
V2: Removing PWL point (0.00172169,0)
V2: Removing PWL point (0.00172331,0)
V2: Removing PWL point (0.00172488,0)
V2: Removing PWL point (0.0017265,0)
V2: Removing PWL point (0.00172806,0)
V2: Removing PWL point (0.00172969,0)
V2: Removing PWL point (0.00173131,0)
V2: Removing PWL point (0.00173288,0)
V2: Removing PWL point (0.0017345,0)
V2: Removing PWL point (0.00173606,0)
V2: Removing PWL point (0.00173769,0)
V2: Removing PWL point (0.00173931,0)
V2: Removing PWL point (0.00174088,0)
V2: Removing PWL point (0.0017425,0)
V2: Removing PWL point (0.00174406,0)
V2: Removing PWL point (0.00174569,0)
V2: Removing PWL point (0.00174731,0)
V2: Removing PWL point (0.00174888,0)
V2: Removing PWL point (0.0017505,0)
V2: Removing PWL point (0.00175206,0)
V2: Removing PWL point (0.00175369,0)
V2: Removing PWL point (0.00175531,0)
V2: Removing PWL point (0.00175688,0)
V2: Removing PWL point (0.0017585,0)
V2: Removing PWL point (0.00176006,0)
V2: Removing PWL point (0.00176156,0)
V2: Removing PWL point (0.001763,0)
V2: Removing PWL point (0.00176444,0)
V2: Removing PWL point (0.00176594,0)
V2: Removing PWL point (0.00176738,0)
V2: Removing PWL point (0.00176881,0)
V2: Removing PWL point (0.00177025,0)
V2: Removing PWL point (0.00177175,0)
V2: Removing PWL point (0.00177319,0)
V2: Removing PWL point (0.00177462,0)
V2: Removing PWL point (0.00177606,0)
V2: Removing PWL point (0.00177756,0)
V2: Removing PWL point (0.001779,0)
V2: Removing PWL point (0.00178044,0)
V2: Removing PWL point (0.00178194,0)
V2: Removing PWL point (0.00178338,0)
V2: Removing PWL point (0.00178481,0)
V2: Removing PWL point (0.00178625,0)
V2: Removing PWL point (0.00178775,0)
V2: Removing PWL point (0.00178919,0)
V2: Removing PWL point (0.00179062,0)
V2: Removing PWL point (0.00179206,0)
V2: Removing PWL point (0.00179356,0)
V2: Removing PWL point (0.001795,0)
V2: Removing PWL point (0.00179644,0)
V2: Removing PWL point (0.00179794,0)
V2: Removing PWL point (0.00179938,0)
V2: Removing PWL point (0.00180081,0)
V2: Removing PWL point (0.00180225,0)
V2: Removing PWL point (0.00180375,0)
V2: Removing PWL point (0.00180519,0)
V2: Removing PWL point (0.00180663,0)
V2: Removing PWL point (0.00180806,0)
V2: Removing PWL point (0.00180956,0)
V2: Removing PWL point (0.001811,0)
V2: Removing PWL point (0.00181244,0)
V2: Removing PWL point (0.00181394,0)
V2: Removing PWL point (0.00181537,0)
V2: Removing PWL point (0.00181681,0)
V2: Removing PWL point (0.00181825,0)
V2: Removing PWL point (0.00181975,0)
V2: Removing PWL point (0.00182119,0)
V2: Removing PWL point (0.00182263,0)
V2: Removing PWL point (0.00182406,0)
V2: Removing PWL point (0.00182556,0)
V2: Removing PWL point (0.001827,0)
V2: Removing PWL point (0.00182844,0)
V2: Removing PWL point (0.00182994,0)
V2: Removing PWL point (0.00183138,0)
V2: Removing PWL point (0.00183281,0)
V2: Removing PWL point (0.00183425,0)
V2: Removing PWL point (0.00183575,0)
V2: Removing PWL point (0.00183719,0)
V2: Removing PWL point (0.00183863,0)
V2: Removing PWL point (0.00184006,0)
V2: Removing PWL point (0.00184156,0)
V2: Removing PWL point (0.001843,0)
V2: Removing PWL point (0.00184444,0)
V2: Removing PWL point (0.00184594,0)
V2: Removing PWL point (0.00184738,0)
V2: Removing PWL point (0.00184881,0)
V2: Removing PWL point (0.00185025,0)
V2: Removing PWL point (0.00185175,0)
V2: Removing PWL point (0.00185319,0)
V2: Removing PWL point (0.00185462,0)
V2: Removing PWL point (0.00185606,0)
V2: Removing PWL point (0.00185756,0)
V2: Removing PWL point (0.001859,0)
V2: Removing PWL point (0.00186044,0)
V2: Removing PWL point (0.00186194,0)
V2: Removing PWL point (0.00186338,0)
V2: Removing PWL point (0.00186481,0)
V2: Removing PWL point (0.00186625,0)
V2: Removing PWL point (0.00186775,0)
V2: Removing PWL point (0.00186919,0)
V2: Removing PWL point (0.00187062,0)
V2: Removing PWL point (0.00187206,0)
V2: Removing PWL point (0.00187356,0)
V2: Removing PWL point (0.001875,0)
V2: Removing PWL point (0.00187644,0)
V2: Removing PWL point (0.00187794,0)
V2: Removing PWL point (0.00187938,0)
V2: Removing PWL point (0.00188081,0)
V2: Removing PWL point (0.00188225,0)
V2: Removing PWL point (0.00188375,0)
V2: Removing PWL point (0.00188519,0)
V2: Removing PWL point (0.00188663,0)
V2: Removing PWL point (0.00188806,0)
V2: Removing PWL point (0.00188956,0)
V2: Removing PWL point (0.001891,0)
V2: Removing PWL point (0.00189244,0)
V2: Removing PWL point (0.00189394,0)
V2: Removing PWL point (0.00189537,0)
V2: Removing PWL point (0.00189681,0)
V2: Removing PWL point (0.00189825,0)
V2: Removing PWL point (0.00189975,0)
V2: Removing PWL point (0.00190119,0)
V2: Removing PWL point (0.00190263,0)
V2: Removing PWL point (0.00190406,0)
V2: Removing PWL point (0.00190556,0)
V2: Removing PWL point (0.001907,0)
V2: Removing PWL point (0.00190844,0)
V2: Removing PWL point (0.00190994,0)
V2: Removing PWL point (0.00191138,0)
V2: Removing PWL point (0.00191281,0)
V2: Removing PWL point (0.00191425,0)
V2: Removing PWL point (0.00191575,0)
V2: Removing PWL point (0.00191719,0)
V2: Removing PWL point (0.00191863,0)
V2: Removing PWL point (0.00192006,0)
V2: Removing PWL point (0.00192144,0)
V2: Removing PWL point (0.00192275,0)
V2: Removing PWL point (0.00192406,0)
V2: Removing PWL point (0.00192544,0)
V2: Removing PWL point (0.00192675,0)
V2: Removing PWL point (0.00192806,0)
V2: Removing PWL point (0.00192944,0)
V2: Removing PWL point (0.00193075,0)
V2: Removing PWL point (0.00193206,0)
V2: Removing PWL point (0.00193344,0)
V2: Removing PWL point (0.00193475,0)
V2: Removing PWL point (0.00193606,0)
V2: Removing PWL point (0.00193744,0)
V2: Removing PWL point (0.00193875,0)
V2: Removing PWL point (0.00194006,0)
V2: Removing PWL point (0.00194144,0)
V2: Removing PWL point (0.00194275,0)
V2: Removing PWL point (0.00194406,0)
V2: Removing PWL point (0.00194544,0)
V2: Removing PWL point (0.00194675,0)
V2: Removing PWL point (0.00194806,0)
V2: Removing PWL point (0.00194944,0)
V2: Removing PWL point (0.00195075,0)
V2: Removing PWL point (0.00195206,0)
V2: Removing PWL point (0.00195344,0)
V2: Removing PWL point (0.00195475,0)
V2: Removing PWL point (0.00195606,0)
V2: Removing PWL point (0.00195744,0)
V2: Removing PWL point (0.00195875,0)
V2: Removing PWL point (0.00196006,0)
V2: Removing PWL point (0.00196144,0)
V2: Removing PWL point (0.00196275,0)
V2: Removing PWL point (0.00196406,0)
V2: Removing PWL point (0.00196544,0)
V2: Removing PWL point (0.00196675,0)
V2: Removing PWL point (0.00196806,0)
V2: Removing PWL point (0.00196944,0)
V2: Removing PWL point (0.00197075,0)
V2: Removing PWL point (0.00197206,0)
V2: Removing PWL point (0.00197344,0)
V2: Removing PWL point (0.00197475,0)
V2: Removing PWL point (0.00197606,0)
V2: Removing PWL point (0.00197744,0)
V2: Removing PWL point (0.00197875,0)
V2: Removing PWL point (0.00198006,0)
V2: Removing PWL point (0.00198144,0)
V2: Removing PWL point (0.00198275,0)
V2: Removing PWL point (0.00198406,0)
V2: Removing PWL point (0.00198544,0)
V2: Removing PWL point (0.00198675,0)
V2: Removing PWL point (0.00198806,0)
V2: Removing PWL point (0.00198944,0)
V2: Removing PWL point (0.00199075,0)
V2: Removing PWL point (0.00199206,0)
V2: Removing PWL point (0.00199344,0)
V2: Removing PWL point (0.00199475,0)
V2: Removing PWL point (0.00199606,0)
V2: Removing PWL point (0.00199744,0)
V2: Removing PWL point (0.00199875,0)
V2: Removing PWL point (0.00200006,0)
V2: Removing PWL point (0.00200144,0)
V2: Removing PWL point (0.00200275,0)
V2: Removing PWL point (0.00200406,0)
V2: Removing PWL point (0.00200544,0)
V2: Removing PWL point (0.00200675,0)
V2: Removing PWL point (0.00200806,0)
V2: Removing PWL point (0.00200944,0)
V2: Removing PWL point (0.00201075,0)
V2: Removing PWL point (0.00201206,0)
V2: Removing PWL point (0.00201344,0)
V2: Removing PWL point (0.00201475,0)
V2: Removing PWL point (0.00201606,0)
V2: Removing PWL point (0.00201744,0)
V2: Removing PWL point (0.00201875,0)
V2: Removing PWL point (0.00202006,0)
V2: Removing PWL point (0.00202144,0)
V2: Removing PWL point (0.00202275,0)
V2: Removing PWL point (0.00202406,0)
V2: Removing PWL point (0.00202544,0)
V2: Removing PWL point (0.00202675,0)
V2: Removing PWL point (0.00202806,0)
V2: Removing PWL point (0.00202944,0)
V2: Removing PWL point (0.00203075,0)
V2: Removing PWL point (0.00203206,0)
V2: Removing PWL point (0.00203344,0)
V2: Removing PWL point (0.00203475,0)
V2: Removing PWL point (0.00203606,0)
V2: Removing PWL point (0.00203744,0)
V2: Removing PWL point (0.00203875,0)
V2: Removing PWL point (0.00204006,0)
V2: Removing PWL point (0.00204144,0)
V2: Removing PWL point (0.00204275,0)
V2: Removing PWL point (0.00204406,0)
V2: Removing PWL point (0.00204544,0)
V2: Removing PWL point (0.00204675,0)
V2: Removing PWL point (0.00204806,0)
V2: Removing PWL point (0.00204944,0)
V2: Removing PWL point (0.00205075,0)
V2: Removing PWL point (0.00205206,0)
V2: Removing PWL point (0.00205344,0)
V2: Removing PWL point (0.00205475,0)
V2: Removing PWL point (0.00205606,0)
V2: Removing PWL point (0.00205744,0)
V2: Removing PWL point (0.00205875,0)
V2: Removing PWL point (0.00206006,0)
V2: Removing PWL point (0.00206144,0)
V2: Removing PWL point (0.00206275,0)
V2: Removing PWL point (0.00206406,0)
V2: Removing PWL point (0.00206544,0)
V2: Removing PWL point (0.00206675,0)
V2: Removing PWL point (0.00206806,0)
V2: Removing PWL point (0.00206944,0)
V2: Removing PWL point (0.00207075,0)
V2: Removing PWL point (0.00207206,0)
V2: Removing PWL point (0.00207344,0)
V2: Removing PWL point (0.00207475,0)
V2: Removing PWL point (0.00207606,0)
V2: Removing PWL point (0.00207744,0)
V2: Removing PWL point (0.00207875,0)
V2: Removing PWL point (0.00208006,0)
V2: Removing PWL point (0.00208131,0)
V2: Removing PWL point (0.00208256,0)
V2: Removing PWL point (0.00208381,0)
V2: Removing PWL point (0.002085,0)
V2: Removing PWL point (0.00208625,0)
V2: Removing PWL point (0.0020875,0)
V2: Removing PWL point (0.00208869,0)
V2: Removing PWL point (0.00208994,0)
V2: Removing PWL point (0.00209119,0)
V2: Removing PWL point (0.00209238,0)
V2: Removing PWL point (0.00209363,0)
V2: Removing PWL point (0.00209487,0)
V2: Removing PWL point (0.00209606,0)
V2: Removing PWL point (0.00209731,0)
V2: Removing PWL point (0.00209856,0)
V2: Removing PWL point (0.00209981,0)
V2: Removing PWL point (0.002101,0)
V2: Removing PWL point (0.00210225,0)
V2: Removing PWL point (0.0021035,0)
V2: Removing PWL point (0.00210469,0)
V2: Removing PWL point (0.00210594,0)
V2: Removing PWL point (0.00210719,0)
V2: Removing PWL point (0.00210838,0)
V2: Removing PWL point (0.00210963,0)
V2: Removing PWL point (0.00211087,0)
V2: Removing PWL point (0.00211206,0)
V2: Removing PWL point (0.00211331,0)
V2: Removing PWL point (0.00211456,0)
V2: Removing PWL point (0.00211581,0)
V2: Removing PWL point (0.002117,0)
V2: Removing PWL point (0.00211825,0)
V2: Removing PWL point (0.0021195,0)
V2: Removing PWL point (0.00212069,0)
V2: Removing PWL point (0.00212194,0)
V2: Removing PWL point (0.00212319,0)
V2: Removing PWL point (0.00212438,0)
V2: Removing PWL point (0.00212562,0)
V2: Removing PWL point (0.00212687,0)
V2: Removing PWL point (0.00212806,0)
V2: Removing PWL point (0.00212931,0)
V2: Removing PWL point (0.00213056,0)
V2: Removing PWL point (0.00213181,0)
V2: Removing PWL point (0.002133,0)
V2: Removing PWL point (0.00213425,0)
V2: Removing PWL point (0.0021355,0)
V2: Removing PWL point (0.00213669,0)
V2: Removing PWL point (0.00213794,0)
V2: Removing PWL point (0.00213919,0)
V2: Removing PWL point (0.00214037,0)
V2: Removing PWL point (0.00214162,0)
V2: Removing PWL point (0.00214287,0)
V2: Removing PWL point (0.00214406,0)
V2: Removing PWL point (0.00214531,0)
V2: Removing PWL point (0.00214656,0)
V2: Removing PWL point (0.00214781,0)
V2: Removing PWL point (0.002149,0)
V2: Removing PWL point (0.00215025,0)
V2: Removing PWL point (0.0021515,0)
V2: Removing PWL point (0.00215269,0)
V2: Removing PWL point (0.00215394,0)
V2: Removing PWL point (0.00215519,0)
V2: Removing PWL point (0.00215637,0)
V2: Removing PWL point (0.00215762,0)
V2: Removing PWL point (0.00215888,0)
V2: Removing PWL point (0.00216006,0)
V2: Removing PWL point (0.00216131,0)
V2: Removing PWL point (0.00216256,0)
V2: Removing PWL point (0.00216381,0)
V2: Removing PWL point (0.002165,0)
V2: Removing PWL point (0.00216625,0)
V2: Removing PWL point (0.0021675,0)
V2: Removing PWL point (0.00216869,0)
V2: Removing PWL point (0.00216994,0)
V2: Removing PWL point (0.00217119,0)
V2: Removing PWL point (0.00217237,0)
V2: Removing PWL point (0.00217363,0)
V2: Removing PWL point (0.00217488,0)
V2: Removing PWL point (0.00217606,0)
V2: Removing PWL point (0.00217731,0)
V2: Removing PWL point (0.00217856,0)
V2: Removing PWL point (0.00217981,0)
V2: Removing PWL point (0.002181,0)
V2: Removing PWL point (0.00218225,0)
V2: Removing PWL point (0.0021835,0)
V2: Removing PWL point (0.00218469,0)
V2: Removing PWL point (0.00218594,0)
V2: Removing PWL point (0.00218719,0)
V2: Removing PWL point (0.00218838,0)
V2: Removing PWL point (0.00218963,0)
V2: Removing PWL point (0.00219088,0)
V2: Removing PWL point (0.00219206,0)
V2: Removing PWL point (0.00219331,0)
V2: Removing PWL point (0.00219456,0)
V2: Removing PWL point (0.00219581,0)
V2: Removing PWL point (0.002197,0)
V2: Removing PWL point (0.00219825,0)
V2: Removing PWL point (0.0021995,0)
V2: Removing PWL point (0.00220069,0)
V2: Removing PWL point (0.00220194,0)
V2: Removing PWL point (0.00220319,0)
V2: Removing PWL point (0.00220438,0)
V2: Removing PWL point (0.00220563,0)
V2: Removing PWL point (0.00220688,0)
V2: Removing PWL point (0.00220806,0)
V2: Removing PWL point (0.00220931,0)
V2: Removing PWL point (0.00221056,0)
V2: Removing PWL point (0.00221181,0)
V2: Removing PWL point (0.002213,0)
V2: Removing PWL point (0.00221425,0)
V2: Removing PWL point (0.0022155,0)
V2: Removing PWL point (0.00221669,0)
V2: Removing PWL point (0.00221794,0)
V2: Removing PWL point (0.00221919,0)
V2: Removing PWL point (0.00222038,0)
V2: Removing PWL point (0.00222163,0)
V2: Removing PWL point (0.00222288,0)
V2: Removing PWL point (0.00222406,0)
V2: Removing PWL point (0.00222531,0)
V2: Removing PWL point (0.00222656,0)
V2: Removing PWL point (0.00222781,0)
V2: Removing PWL point (0.002229,0)
V2: Removing PWL point (0.00223025,0)
V2: Removing PWL point (0.0022315,0)
V2: Removing PWL point (0.00223269,0)
V2: Removing PWL point (0.00223394,0)
V2: Removing PWL point (0.00223519,0)
V2: Removing PWL point (0.00223638,0)
V2: Removing PWL point (0.00223763,0)
V2: Removing PWL point (0.00223888,0)
V2: Removing PWL point (0.00224006,0)
V2: Removing PWL point (0.00224125,0)
V2: Removing PWL point (0.00224238,0)
V2: Removing PWL point (0.0022435,0)
V2: Removing PWL point (0.00224469,0)
V2: Removing PWL point (0.00224581,0)
V2: Removing PWL point (0.00224694,0)
V2: Removing PWL point (0.00224806,0)
V2: Removing PWL point (0.00224925,0)
V2: Removing PWL point (0.00225038,0)
V2: Removing PWL point (0.0022515,0)
V2: Removing PWL point (0.00225269,0)
V2: Removing PWL point (0.00225381,0)
V2: Removing PWL point (0.00225494,0)
V2: Removing PWL point (0.00225606,0)
V2: Removing PWL point (0.00225725,0)
V2: Removing PWL point (0.00225838,0)
V2: Removing PWL point (0.0022595,0)
V2: Removing PWL point (0.00226069,0)
V2: Removing PWL point (0.00226181,0)
V2: Removing PWL point (0.00226294,0)
V2: Removing PWL point (0.00226406,0)
V2: Removing PWL point (0.00226525,0)
V2: Removing PWL point (0.00226638,0)
V2: Removing PWL point (0.0022675,0)
V2: Removing PWL point (0.00226869,0)
V2: Removing PWL point (0.00226981,0)
V2: Removing PWL point (0.00227094,0)
V2: Removing PWL point (0.00227206,0)
V2: Removing PWL point (0.00227325,0)
V2: Removing PWL point (0.00227437,0)
V2: Removing PWL point (0.0022755,0)
V2: Removing PWL point (0.00227669,0)
V2: Removing PWL point (0.00227781,0)
V2: Removing PWL point (0.00227894,0)
V2: Removing PWL point (0.00228006,0)
V2: Removing PWL point (0.00228125,0)
V2: Removing PWL point (0.00228238,0)
V2: Removing PWL point (0.0022835,0)
V2: Removing PWL point (0.00228469,0)
V2: Removing PWL point (0.00228581,0)
V2: Removing PWL point (0.00228694,0)
V2: Removing PWL point (0.00228806,0)
V2: Removing PWL point (0.00228925,0)
V2: Removing PWL point (0.00229037,0)
V2: Removing PWL point (0.0022915,0)
V2: Removing PWL point (0.00229269,0)
V2: Removing PWL point (0.00229381,0)
V2: Removing PWL point (0.00229494,0)
V2: Removing PWL point (0.00229606,0)
V2: Removing PWL point (0.00229725,0)
V2: Removing PWL point (0.00229838,0)
V2: Removing PWL point (0.0022995,0)
V2: Removing PWL point (0.00230069,0)
V2: Removing PWL point (0.00230181,0)
V2: Removing PWL point (0.00230294,0)
V2: Removing PWL point (0.00230406,0)
V2: Removing PWL point (0.00230525,0)
V2: Removing PWL point (0.00230637,0)
V2: Removing PWL point (0.0023075,0)
V2: Removing PWL point (0.00230869,0)
V2: Removing PWL point (0.00230981,0)
V2: Removing PWL point (0.00231094,0)
V2: Removing PWL point (0.00231206,0)
V2: Removing PWL point (0.00231325,0)
V2: Removing PWL point (0.00231438,0)
V2: Removing PWL point (0.0023155,0)
V2: Removing PWL point (0.00231669,0)
V2: Removing PWL point (0.00231781,0)
V2: Removing PWL point (0.00231894,0)
V2: Removing PWL point (0.00232006,0)
V2: Removing PWL point (0.00232125,0)
V2: Removing PWL point (0.00232237,0)
V2: Removing PWL point (0.0023235,0)
V2: Removing PWL point (0.00232469,0)
V2: Removing PWL point (0.00232581,0)
V2: Removing PWL point (0.00232694,0)
V2: Removing PWL point (0.00232806,0)
V2: Removing PWL point (0.00232925,0)
V2: Removing PWL point (0.00233038,0)
V2: Removing PWL point (0.0023315,0)
V2: Removing PWL point (0.00233269,0)
V2: Removing PWL point (0.00233381,0)
V2: Removing PWL point (0.00233494,0)
V2: Removing PWL point (0.00233606,0)
V2: Removing PWL point (0.00233725,0)
V2: Removing PWL point (0.00233838,0)
V2: Removing PWL point (0.0023395,0)
V2: Removing PWL point (0.00234069,0)
V2: Removing PWL point (0.00234181,0)
V2: Removing PWL point (0.00234294,0)
V2: Removing PWL point (0.00234406,0)
V2: Removing PWL point (0.00234525,0)
V2: Removing PWL point (0.00234637,0)
V2: Removing PWL point (0.0023475,0)
V2: Removing PWL point (0.00234869,0)
V2: Removing PWL point (0.00234981,0)
V2: Removing PWL point (0.00235094,0)
V2: Removing PWL point (0.00235206,0)
V2: Removing PWL point (0.00235325,0)
V2: Removing PWL point (0.00235438,0)
V2: Removing PWL point (0.0023555,0)
V2: Removing PWL point (0.00235669,0)
V2: Removing PWL point (0.00235781,0)
V2: Removing PWL point (0.00235894,0)
V2: Removing PWL point (0.00236006,0)
V2: Removing PWL point (0.00236125,0)
V2: Removing PWL point (0.00236237,0)
V2: Removing PWL point (0.0023635,0)
V2: Removing PWL point (0.00236469,0)
V2: Removing PWL point (0.00236581,0)
V2: Removing PWL point (0.00236694,0)
V2: Removing PWL point (0.00236806,0)
V2: Removing PWL point (0.00236925,0)
V2: Removing PWL point (0.00237038,0)
V2: Removing PWL point (0.0023715,0)
V2: Removing PWL point (0.00237269,0)
V2: Removing PWL point (0.00237381,0)
V2: Removing PWL point (0.00237494,0)
V2: Removing PWL point (0.00237606,0)
V2: Removing PWL point (0.00237725,0)
V2: Removing PWL point (0.00237837,0)
V2: Removing PWL point (0.0023795,0)
V2: Removing PWL point (0.00238069,0)
V2: Removing PWL point (0.00238181,0)
V2: Removing PWL point (0.00238294,0)
V2: Removing PWL point (0.00238406,0)
V2: Removing PWL point (0.00238525,0)
V2: Removing PWL point (0.00238638,0)
V2: Removing PWL point (0.0023875,0)
V2: Removing PWL point (0.00238869,0)
V2: Removing PWL point (0.00238981,0)
V2: Removing PWL point (0.00239094,0)
V2: Removing PWL point (0.00239206,0)
V2: Removing PWL point (0.00239325,0)
V2: Removing PWL point (0.00239437,0)
V2: Removing PWL point (0.0023955,0)
V2: Removing PWL point (0.00239669,0)
V2: Removing PWL point (0.00239781,0)
V2: Removing PWL point (0.00239894,0)
V2: Removing PWL point (0.00240006,0)
V2: Removing PWL point (0.00240119,0)
V2: Removing PWL point (0.00240225,0)
V2: Removing PWL point (0.00240331,0)
V2: Removing PWL point (0.00240437,0)
V2: Removing PWL point (0.00240544,0)
V2: Removing PWL point (0.0024065,0)
V2: Removing PWL point (0.00240756,0)
V2: Removing PWL point (0.00240863,0)
V2: Removing PWL point (0.00240969,0)
V2: Removing PWL point (0.00241075,0)
V2: Removing PWL point (0.00241181,0)
V2: Removing PWL point (0.00241288,0)
V2: Removing PWL point (0.00241394,0)
V2: Removing PWL point (0.002415,0)
V2: Removing PWL point (0.00241606,0)
V2: Removing PWL point (0.00241719,0)
V2: Removing PWL point (0.00241825,0)
V2: Removing PWL point (0.00241931,0)
V2: Removing PWL point (0.00242037,0)
V2: Removing PWL point (0.00242144,0)
V2: Removing PWL point (0.0024225,0)
V2: Removing PWL point (0.00242356,0)
V2: Removing PWL point (0.00242463,0)
V2: Removing PWL point (0.00242569,0)
V2: Removing PWL point (0.00242675,0)
V2: Removing PWL point (0.00242781,0)
V2: Removing PWL point (0.00242888,0)
V2: Removing PWL point (0.00242994,0)
V2: Removing PWL point (0.002431,0)
V2: Removing PWL point (0.00243206,0)
V2: Removing PWL point (0.00243319,0)
V2: Removing PWL point (0.00243425,0)
V2: Removing PWL point (0.00243531,0)
V2: Removing PWL point (0.00243638,0)
V2: Removing PWL point (0.00243744,0)
V2: Removing PWL point (0.0024385,0)
V2: Removing PWL point (0.00243956,0)
V2: Removing PWL point (0.00244063,0)
V2: Removing PWL point (0.00244169,0)
V2: Removing PWL point (0.00244275,0)
V2: Removing PWL point (0.00244381,0)
V2: Removing PWL point (0.00244488,0)
V2: Removing PWL point (0.00244594,0)
V2: Removing PWL point (0.002447,0)
V2: Removing PWL point (0.00244806,0)
V2: Removing PWL point (0.00244919,0)
V2: Removing PWL point (0.00245025,0)
V2: Removing PWL point (0.00245131,0)
V2: Removing PWL point (0.00245238,0)
V2: Removing PWL point (0.00245344,0)
V2: Removing PWL point (0.0024545,0)
V2: Removing PWL point (0.00245556,0)
V2: Removing PWL point (0.00245663,0)
V2: Removing PWL point (0.00245769,0)
V2: Removing PWL point (0.00245875,0)
V2: Removing PWL point (0.00245981,0)
V2: Removing PWL point (0.00246088,0)
V2: Removing PWL point (0.00246194,0)
V2: Removing PWL point (0.002463,0)
V2: Removing PWL point (0.00246406,0)
V2: Removing PWL point (0.00246519,0)
V2: Removing PWL point (0.00246625,0)
V2: Removing PWL point (0.00246731,0)
V2: Removing PWL point (0.00246838,0)
V2: Removing PWL point (0.00246944,0)
V2: Removing PWL point (0.0024705,0)
V2: Removing PWL point (0.00247156,0)
V2: Removing PWL point (0.00247263,0)
V2: Removing PWL point (0.00247369,0)
V2: Removing PWL point (0.00247475,0)
V2: Removing PWL point (0.00247581,0)
V2: Removing PWL point (0.00247687,0)
V2: Removing PWL point (0.00247794,0)
V2: Removing PWL point (0.002479,0)
V2: Removing PWL point (0.00248006,0)
V2: Removing PWL point (0.00248119,0)
V2: Removing PWL point (0.00248225,0)
V2: Removing PWL point (0.00248331,0)
V2: Removing PWL point (0.00248438,0)
V2: Removing PWL point (0.00248544,0)
V2: Removing PWL point (0.0024865,0)
V2: Removing PWL point (0.00248756,0)
V2: Removing PWL point (0.00248863,0)
V2: Removing PWL point (0.00248969,0)
V2: Removing PWL point (0.00249075,0)
V2: Removing PWL point (0.00249181,0)
V2: Removing PWL point (0.00249287,0)
V2: Removing PWL point (0.00249394,0)
V2: Removing PWL point (0.002495,0)
V2: Removing PWL point (0.00249606,0)
V2: Removing PWL point (0.00249719,0)
V2: Removing PWL point (0.00249825,0)
V2: Removing PWL point (0.00249931,0)
V2: Removing PWL point (0.00250038,0)
V2: Removing PWL point (0.00250144,0)
V2: Removing PWL point (0.0025025,0)
V2: Removing PWL point (0.00250356,0)
V2: Removing PWL point (0.00250462,0)
V2: Removing PWL point (0.00250569,0)
V2: Removing PWL point (0.00250675,0)
V2: Removing PWL point (0.00250781,0)
V2: Removing PWL point (0.00250887,0)
V2: Removing PWL point (0.00250994,0)
V2: Removing PWL point (0.002511,0)
V2: Removing PWL point (0.00251206,0)
V2: Removing PWL point (0.00251319,0)
V2: Removing PWL point (0.00251425,0)
V2: Removing PWL point (0.00251531,0)
V2: Removing PWL point (0.00251637,0)
V2: Removing PWL point (0.00251744,0)
V2: Removing PWL point (0.0025185,0)
V2: Removing PWL point (0.00251956,0)
V2: Removing PWL point (0.00252062,0)
V2: Removing PWL point (0.00252169,0)
V2: Removing PWL point (0.00252275,0)
V2: Removing PWL point (0.00252381,0)
V2: Removing PWL point (0.00252488,0)
V2: Removing PWL point (0.00252594,0)
V2: Removing PWL point (0.002527,0)
V2: Removing PWL point (0.00252806,0)
V2: Removing PWL point (0.00252919,0)
V2: Removing PWL point (0.00253025,0)
V2: Removing PWL point (0.00253131,0)
V2: Removing PWL point (0.00253237,0)
V2: Removing PWL point (0.00253344,0)
V2: Removing PWL point (0.0025345,0)
V2: Removing PWL point (0.00253556,0)
V2: Removing PWL point (0.00253662,0)
V2: Removing PWL point (0.00253769,0)
V2: Removing PWL point (0.00253875,0)
V2: Removing PWL point (0.00253981,0)
V2: Removing PWL point (0.00254088,0)
V2: Removing PWL point (0.00254194,0)
V2: Removing PWL point (0.002543,0)
V2: Removing PWL point (0.00254406,0)
V2: Removing PWL point (0.00254519,0)
V2: Removing PWL point (0.00254625,0)
V2: Removing PWL point (0.00254731,0)
V2: Removing PWL point (0.00254837,0)
V2: Removing PWL point (0.00254944,0)
V2: Removing PWL point (0.0025505,0)
V2: Removing PWL point (0.00255156,0)
V2: Removing PWL point (0.00255263,0)
V2: Removing PWL point (0.00255369,0)
V2: Removing PWL point (0.00255475,0)
V2: Removing PWL point (0.00255581,0)
V2: Removing PWL point (0.00255688,0)
V2: Removing PWL point (0.00255794,0)
V2: Removing PWL point (0.002559,0)
V2: Removing PWL point (0.00256006,0)
V2: Removing PWL point (0.00256106,0)
V2: Removing PWL point (0.00256206,0)
V2: Removing PWL point (0.00256306,0)
V2: Removing PWL point (0.00256406,0)
V2: Removing PWL point (0.00256506,0)
V2: Removing PWL point (0.00256606,0)
V2: Removing PWL point (0.00256706,0)
V2: Removing PWL point (0.00256806,0)
V2: Removing PWL point (0.00256906,0)
V2: Removing PWL point (0.00257006,0)
V2: Removing PWL point (0.00257106,0)
V2: Removing PWL point (0.00257206,0)
V2: Removing PWL point (0.00257306,0)
V2: Removing PWL point (0.00257406,0)
V2: Removing PWL point (0.00257506,0)
V2: Removing PWL point (0.00257606,0)
V2: Removing PWL point (0.00257706,0)
V2: Removing PWL point (0.00257806,0)
V2: Removing PWL point (0.00257906,0)
V2: Removing PWL point (0.00258006,0)
V2: Removing PWL point (0.00258106,0)
V2: Removing PWL point (0.00258206,0)
V2: Removing PWL point (0.00258306,0)
V2: Removing PWL point (0.00258406,0)
V2: Removing PWL point (0.00258506,0)
V2: Removing PWL point (0.00258606,0)
V2: Removing PWL point (0.00258706,0)
V2: Removing PWL point (0.00258806,0)
V2: Removing PWL point (0.00258906,0)
V2: Removing PWL point (0.00259006,0)
V2: Removing PWL point (0.00259106,0)
V2: Removing PWL point (0.00259206,0)
V2: Removing PWL point (0.00259306,0)
V2: Removing PWL point (0.00259406,0)
V2: Removing PWL point (0.00259506,0)
V2: Removing PWL point (0.00259606,0)
V2: Removing PWL point (0.00259706,0)
V2: Removing PWL point (0.00259806,0)
V2: Removing PWL point (0.00259906,0)
V2: Removing PWL point (0.00260006,0)
V2: Removing PWL point (0.00260106,0)
V2: Removing PWL point (0.00260206,0)
V2: Removing PWL point (0.00260306,0)
V2: Removing PWL point (0.00260406,0)
V2: Removing PWL point (0.00260506,0)
V2: Removing PWL point (0.00260606,0)
V2: Removing PWL point (0.00260706,0)
V2: Removing PWL point (0.00260806,0)
V2: Removing PWL point (0.00260906,0)
V2: Removing PWL point (0.00261006,0)
V2: Removing PWL point (0.00261106,0)
V2: Removing PWL point (0.00261206,0)
V2: Removing PWL point (0.00261306,0)
V2: Removing PWL point (0.00261406,0)
V2: Removing PWL point (0.00261506,0)
V2: Removing PWL point (0.00261606,0)
V2: Removing PWL point (0.00261706,0)
V2: Removing PWL point (0.00261806,0)
V2: Removing PWL point (0.00261906,0)
V2: Removing PWL point (0.00262006,0)
V2: Removing PWL point (0.00262106,0)
V2: Removing PWL point (0.00262206,0)
V2: Removing PWL point (0.00262306,0)
V2: Removing PWL point (0.00262406,0)
V2: Removing PWL point (0.00262506,0)
V2: Removing PWL point (0.00262606,0)
V2: Removing PWL point (0.00262706,0)
V2: Removing PWL point (0.00262806,0)
V2: Removing PWL point (0.00262906,0)
V2: Removing PWL point (0.00263006,0)
V2: Removing PWL point (0.00263106,0)
V2: Removing PWL point (0.00263206,0)
V2: Removing PWL point (0.00263306,0)
V2: Removing PWL point (0.00263406,0)
V2: Removing PWL point (0.00263506,0)
V2: Removing PWL point (0.00263606,0)
V2: Removing PWL point (0.00263706,0)
V2: Removing PWL point (0.00263806,0)
V2: Removing PWL point (0.00263906,0)
V2: Removing PWL point (0.00264006,0)
V2: Removing PWL point (0.00264106,0)
V2: Removing PWL point (0.00264206,0)
V2: Removing PWL point (0.00264306,0)
V2: Removing PWL point (0.00264406,0)
V2: Removing PWL point (0.00264506,0)
V2: Removing PWL point (0.00264606,0)
V2: Removing PWL point (0.00264706,0)
V2: Removing PWL point (0.00264806,0)
V2: Removing PWL point (0.00264906,0)
V2: Removing PWL point (0.00265006,0)
V2: Removing PWL point (0.00265106,0)
V2: Removing PWL point (0.00265206,0)
V2: Removing PWL point (0.00265306,0)
V2: Removing PWL point (0.00265406,0)
V2: Removing PWL point (0.00265506,0)
V2: Removing PWL point (0.00265606,0)
V2: Removing PWL point (0.00265706,0)
V2: Removing PWL point (0.00265806,0)
V2: Removing PWL point (0.00265906,0)
V2: Removing PWL point (0.00266006,0)
V2: Removing PWL point (0.00266106,0)
V2: Removing PWL point (0.00266206,0)
V2: Removing PWL point (0.00266306,0)
V2: Removing PWL point (0.00266406,0)
V2: Removing PWL point (0.00266506,0)
V2: Removing PWL point (0.00266606,0)
V2: Removing PWL point (0.00266706,0)
V2: Removing PWL point (0.00266806,0)
V2: Removing PWL point (0.00266906,0)
V2: Removing PWL point (0.00267006,0)
V2: Removing PWL point (0.00267106,0)
V2: Removing PWL point (0.00267206,0)
V2: Removing PWL point (0.00267306,0)
V2: Removing PWL point (0.00267406,0)
V2: Removing PWL point (0.00267506,0)
V2: Removing PWL point (0.00267606,0)
V2: Removing PWL point (0.00267706,0)
V2: Removing PWL point (0.00267806,0)
V2: Removing PWL point (0.00267906,0)
V2: Removing PWL point (0.00268006,0)
V2: Removing PWL point (0.00268106,0)
V2: Removing PWL point (0.00268206,0)
V2: Removing PWL point (0.00268306,0)
V2: Removing PWL point (0.00268406,0)
V2: Removing PWL point (0.00268506,0)
V2: Removing PWL point (0.00268606,0)
V2: Removing PWL point (0.00268706,0)
V2: Removing PWL point (0.00268806,0)
V2: Removing PWL point (0.00268906,0)
V2: Removing PWL point (0.00269006,0)
V2: Removing PWL point (0.00269106,0)
V2: Removing PWL point (0.00269206,0)
V2: Removing PWL point (0.00269306,0)
V2: Removing PWL point (0.00269406,0)
V2: Removing PWL point (0.00269506,0)
V2: Removing PWL point (0.00269606,0)
V2: Removing PWL point (0.00269706,0)
V2: Removing PWL point (0.00269806,0)
V2: Removing PWL point (0.00269906,0)
V2: Removing PWL point (0.00270006,0)
V2: Removing PWL point (0.00270106,0)
V2: Removing PWL point (0.00270206,0)
V2: Removing PWL point (0.00270306,0)
V2: Removing PWL point (0.00270406,0)
V2: Removing PWL point (0.00270506,0)
V2: Removing PWL point (0.00270606,0)
V2: Removing PWL point (0.00270706,0)
V2: Removing PWL point (0.00270806,0)
V2: Removing PWL point (0.00270906,0)
V2: Removing PWL point (0.00271006,0)
V2: Removing PWL point (0.00271106,0)
V2: Removing PWL point (0.00271206,0)
V2: Removing PWL point (0.00271306,0)
V2: Removing PWL point (0.00271406,0)
V2: Removing PWL point (0.00271506,0)
V2: Removing PWL point (0.00271606,0)
V2: Removing PWL point (0.00271706,0)
V2: Removing PWL point (0.00271806,0)
V2: Removing PWL point (0.00271906,0)
V2: Removing PWL point (0.00272006,0)
V2: Removing PWL point (0.00272106,0)
V2: Removing PWL point (0.002722,0)
V2: Removing PWL point (0.00272294,0)
V2: Removing PWL point (0.00272388,0)
V2: Removing PWL point (0.00272481,0)
V2: Removing PWL point (0.00272575,0)
V2: Removing PWL point (0.00272669,0)
V2: Removing PWL point (0.00272763,0)
V2: Removing PWL point (0.00272856,0)
V2: Removing PWL point (0.0027295,0)
V2: Removing PWL point (0.00273044,0)
V2: Removing PWL point (0.00273137,0)
V2: Removing PWL point (0.00273231,0)
V2: Removing PWL point (0.00273325,0)
V2: Removing PWL point (0.00273419,0)
V2: Removing PWL point (0.00273513,0)
V2: Removing PWL point (0.00273606,0)
V2: Removing PWL point (0.00273706,0)
V2: Removing PWL point (0.002738,0)
V2: Removing PWL point (0.00273894,0)
V2: Removing PWL point (0.00273988,0)
V2: Removing PWL point (0.00274081,0)
V2: Removing PWL point (0.00274175,0)
V2: Removing PWL point (0.00274269,0)
V2: Removing PWL point (0.00274363,0)
V2: Removing PWL point (0.00274456,0)
V2: Removing PWL point (0.0027455,0)
V2: Removing PWL point (0.00274644,0)
V2: Removing PWL point (0.00274737,0)
V2: Removing PWL point (0.00274831,0)
V2: Removing PWL point (0.00274925,0)
V2: Removing PWL point (0.00275019,0)
V2: Removing PWL point (0.00275113,0)
V2: Removing PWL point (0.00275206,0)
V2: Removing PWL point (0.00275306,0)
V2: Removing PWL point (0.002754,0)
V2: Removing PWL point (0.00275494,0)
V2: Removing PWL point (0.00275588,0)
V2: Removing PWL point (0.00275681,0)
V2: Removing PWL point (0.00275775,0)
V2: Removing PWL point (0.00275869,0)
V2: Removing PWL point (0.00275962,0)
V2: Removing PWL point (0.00276056,0)
V2: Removing PWL point (0.0027615,0)
V2: Removing PWL point (0.00276244,0)
V2: Removing PWL point (0.00276338,0)
V2: Removing PWL point (0.00276431,0)
V2: Removing PWL point (0.00276525,0)
V2: Removing PWL point (0.00276619,0)
V2: Removing PWL point (0.00276713,0)
V2: Removing PWL point (0.00276806,0)
V2: Removing PWL point (0.00276906,0)
V2: Removing PWL point (0.00277,0)
V2: Removing PWL point (0.00277094,0)
V2: Removing PWL point (0.00277188,0)
V2: Removing PWL point (0.00277281,0)
V2: Removing PWL point (0.00277375,0)
V2: Removing PWL point (0.00277469,0)
V2: Removing PWL point (0.00277562,0)
V2: Removing PWL point (0.00277656,0)
V2: Removing PWL point (0.0027775,0)
V2: Removing PWL point (0.00277844,0)
V2: Removing PWL point (0.00277938,0)
V2: Removing PWL point (0.00278031,0)
V2: Removing PWL point (0.00278125,0)
V2: Removing PWL point (0.00278219,0)
V2: Removing PWL point (0.00278313,0)
V2: Removing PWL point (0.00278406,0)
V2: Removing PWL point (0.00278506,0)
V2: Removing PWL point (0.002786,0)
V2: Removing PWL point (0.00278694,0)
V2: Removing PWL point (0.00278788,0)
V2: Removing PWL point (0.00278881,0)
V2: Removing PWL point (0.00278975,0)
V2: Removing PWL point (0.00279069,0)
V2: Removing PWL point (0.00279162,0)
V2: Removing PWL point (0.00279256,0)
V2: Removing PWL point (0.0027935,0)
V2: Removing PWL point (0.00279444,0)
V2: Removing PWL point (0.00279538,0)
V2: Removing PWL point (0.00279631,0)
V2: Removing PWL point (0.00279725,0)
V2: Removing PWL point (0.00279819,0)
V2: Removing PWL point (0.00279913,0)
V2: Removing PWL point (0.00280006,0)
V2: Removing PWL point (0.00280106,0)
V2: Removing PWL point (0.002802,0)
V2: Removing PWL point (0.00280294,0)
V2: Removing PWL point (0.00280387,0)
V2: Removing PWL point (0.00280481,0)
V2: Removing PWL point (0.00280575,0)
V2: Removing PWL point (0.00280669,0)
V2: Removing PWL point (0.00280762,0)
V2: Removing PWL point (0.00280856,0)
V2: Removing PWL point (0.0028095,0)
V2: Removing PWL point (0.00281044,0)
V2: Removing PWL point (0.00281138,0)
V2: Removing PWL point (0.00281231,0)
V2: Removing PWL point (0.00281325,0)
V2: Removing PWL point (0.00281419,0)
V2: Removing PWL point (0.00281512,0)
V2: Removing PWL point (0.00281606,0)
V2: Removing PWL point (0.00281706,0)
V2: Removing PWL point (0.002818,0)
V2: Removing PWL point (0.00281894,0)
V2: Removing PWL point (0.00281987,0)
V2: Removing PWL point (0.00282081,0)
V2: Removing PWL point (0.00282175,0)
V2: Removing PWL point (0.00282269,0)
V2: Removing PWL point (0.00282363,0)
V2: Removing PWL point (0.00282456,0)
V2: Removing PWL point (0.0028255,0)
V2: Removing PWL point (0.00282644,0)
V2: Removing PWL point (0.00282738,0)
V2: Removing PWL point (0.00282831,0)
V2: Removing PWL point (0.00282925,0)
V2: Removing PWL point (0.00283019,0)
V2: Removing PWL point (0.00283112,0)
V2: Removing PWL point (0.00283206,0)
V2: Removing PWL point (0.00283306,0)
V2: Removing PWL point (0.002834,0)
V2: Removing PWL point (0.00283494,0)
V2: Removing PWL point (0.00283587,0)
V2: Removing PWL point (0.00283681,0)
V2: Removing PWL point (0.00283775,0)
V2: Removing PWL point (0.00283869,0)
V2: Removing PWL point (0.00283963,0)
V2: Removing PWL point (0.00284056,0)
V2: Removing PWL point (0.0028415,0)
V2: Removing PWL point (0.00284244,0)
V2: Removing PWL point (0.00284338,0)
V2: Removing PWL point (0.00284431,0)
V2: Removing PWL point (0.00284525,0)
V2: Removing PWL point (0.00284619,0)
V2: Removing PWL point (0.00284712,0)
V2: Removing PWL point (0.00284806,0)
V2: Removing PWL point (0.00284906,0)
V2: Removing PWL point (0.00285,0)
V2: Removing PWL point (0.00285094,0)
V2: Removing PWL point (0.00285187,0)
V2: Removing PWL point (0.00285281,0)
V2: Removing PWL point (0.00285375,0)
V2: Removing PWL point (0.00285469,0)
V2: Removing PWL point (0.00285563,0)
V2: Removing PWL point (0.00285656,0)
V2: Removing PWL point (0.0028575,0)
V2: Removing PWL point (0.00285844,0)
V2: Removing PWL point (0.00285937,0)
V2: Removing PWL point (0.00286031,0)
V2: Removing PWL point (0.00286125,0)
V2: Removing PWL point (0.00286219,0)
V2: Removing PWL point (0.00286312,0)
V2: Removing PWL point (0.00286406,0)
V2: Removing PWL point (0.00286506,0)
V2: Removing PWL point (0.002866,0)
V2: Removing PWL point (0.00286694,0)
V2: Removing PWL point (0.00286788,0)
V2: Removing PWL point (0.00286881,0)
V2: Removing PWL point (0.00286975,0)
V2: Removing PWL point (0.00287069,0)
V2: Removing PWL point (0.00287163,0)
V2: Removing PWL point (0.00287256,0)
V2: Removing PWL point (0.0028735,0)
V2: Removing PWL point (0.00287444,0)
V2: Removing PWL point (0.00287537,0)
V2: Removing PWL point (0.00287631,0)
V2: Removing PWL point (0.00287725,0)
V2: Removing PWL point (0.00287819,0)
V2: Removing PWL point (0.00287913,0)
V2: Removing PWL point (0.00288006,0)
V2: Removing PWL point (0.002881,0)
V2: Removing PWL point (0.00288187,0)
V2: Removing PWL point (0.00288275,0)
V2: Removing PWL point (0.00288362,0)
V2: Removing PWL point (0.00288456,0)
V2: Removing PWL point (0.00288544,0)
V2: Removing PWL point (0.00288631,0)
V2: Removing PWL point (0.00288719,0)
V2: Removing PWL point (0.00288806,0)
V2: Removing PWL point (0.002889,0)
V2: Removing PWL point (0.00288988,0)
V2: Removing PWL point (0.00289075,0)
V2: Removing PWL point (0.00289163,0)
V2: Removing PWL point (0.00289256,0)
V2: Removing PWL point (0.00289344,0)
V2: Removing PWL point (0.00289431,0)
V2: Removing PWL point (0.00289519,0)
V2: Removing PWL point (0.00289606,0)
V2: Removing PWL point (0.002897,0)
V2: Removing PWL point (0.00289787,0)
V2: Removing PWL point (0.00289875,0)
V2: Removing PWL point (0.00289962,0)
V2: Removing PWL point (0.00290056,0)
V2: Removing PWL point (0.00290144,0)
V2: Removing PWL point (0.00290231,0)
V2: Removing PWL point (0.00290319,0)
V2: Removing PWL point (0.00290406,0)
V2: Removing PWL point (0.002905,0)
V2: Removing PWL point (0.00290588,0)
V2: Removing PWL point (0.00290675,0)
V2: Removing PWL point (0.00290763,0)
V2: Removing PWL point (0.00290856,0)
V2: Removing PWL point (0.00290944,0)
V2: Removing PWL point (0.00291031,0)
V2: Removing PWL point (0.00291119,0)
V2: Removing PWL point (0.00291206,0)
V2: Removing PWL point (0.002913,0)
V2: Removing PWL point (0.00291387,0)
V2: Removing PWL point (0.00291475,0)
V2: Removing PWL point (0.00291562,0)
V2: Removing PWL point (0.00291656,0)
V2: Removing PWL point (0.00291744,0)
V2: Removing PWL point (0.00291831,0)
V2: Removing PWL point (0.00291919,0)
V2: Removing PWL point (0.00292006,0)
V2: Removing PWL point (0.002921,0)
V2: Removing PWL point (0.00292188,0)
V2: Removing PWL point (0.00292275,0)
V2: Removing PWL point (0.00292363,0)
V2: Removing PWL point (0.00292456,0)
V2: Removing PWL point (0.00292544,0)
V2: Removing PWL point (0.00292631,0)
V2: Removing PWL point (0.00292719,0)
V2: Removing PWL point (0.00292806,0)
V2: Removing PWL point (0.002929,0)
V2: Removing PWL point (0.00292988,0)
V2: Removing PWL point (0.00293075,0)
V2: Removing PWL point (0.00293163,0)
V2: Removing PWL point (0.00293256,0)
V2: Removing PWL point (0.00293344,0)
V2: Removing PWL point (0.00293431,0)
V2: Removing PWL point (0.00293519,0)
V2: Removing PWL point (0.00293606,0)
V2: Removing PWL point (0.002937,0)
V2: Removing PWL point (0.00293787,0)
V2: Removing PWL point (0.00293875,0)
V2: Removing PWL point (0.00293963,0)
V2: Removing PWL point (0.00294056,0)
V2: Removing PWL point (0.00294144,0)
V2: Removing PWL point (0.00294231,0)
V2: Removing PWL point (0.00294319,0)
V2: Removing PWL point (0.00294406,0)
V2: Removing PWL point (0.002945,0)
V2: Removing PWL point (0.00294588,0)
V2: Removing PWL point (0.00294675,0)
V2: Removing PWL point (0.00294763,0)
V2: Removing PWL point (0.00294856,0)
V2: Removing PWL point (0.00294944,0)
V2: Removing PWL point (0.00295031,0)
V2: Removing PWL point (0.00295119,0)
V2: Removing PWL point (0.00295206,0)
V2: Removing PWL point (0.002953,0)
V2: Removing PWL point (0.00295387,0)
V2: Removing PWL point (0.00295475,0)
V2: Removing PWL point (0.00295562,0)
V2: Removing PWL point (0.00295656,0)
V2: Removing PWL point (0.00295744,0)
V2: Removing PWL point (0.00295831,0)
V2: Removing PWL point (0.00295919,0)
V2: Removing PWL point (0.00296006,0)
V2: Removing PWL point (0.002961,0)
V2: Removing PWL point (0.00296188,0)
V2: Removing PWL point (0.00296275,0)
V2: Removing PWL point (0.00296363,0)
V2: Removing PWL point (0.00296456,0)
V2: Removing PWL point (0.00296544,0)
V2: Removing PWL point (0.00296631,0)
V2: Removing PWL point (0.00296719,0)
V2: Removing PWL point (0.00296806,0)
V2: Removing PWL point (0.002969,0)
V2: Removing PWL point (0.00296987,0)
V2: Removing PWL point (0.00297075,0)
V2: Removing PWL point (0.00297162,0)
V2: Removing PWL point (0.00297256,0)
V2: Removing PWL point (0.00297344,0)
V2: Removing PWL point (0.00297431,0)
V2: Removing PWL point (0.00297519,0)
V2: Removing PWL point (0.00297606,0)
V2: Removing PWL point (0.002977,0)
V2: Removing PWL point (0.00297788,0)
V2: Removing PWL point (0.00297875,0)
V2: Removing PWL point (0.00297963,0)
V2: Removing PWL point (0.00298056,0)
V2: Removing PWL point (0.00298144,0)
V2: Removing PWL point (0.00298231,0)
V2: Removing PWL point (0.00298319,0)
V2: Removing PWL point (0.00298406,0)
V2: Removing PWL point (0.002985,0)
V2: Removing PWL point (0.00298587,0)
V2: Removing PWL point (0.00298675,0)
V2: Removing PWL point (0.00298762,0)
V2: Removing PWL point (0.00298856,0)
V2: Removing PWL point (0.00298944,0)
V2: Removing PWL point (0.00299031,0)
V2: Removing PWL point (0.00299119,0)
V2: Removing PWL point (0.00299206,0)
V2: Removing PWL point (0.002993,0)
V2: Removing PWL point (0.00299388,0)
V2: Removing PWL point (0.00299475,0)
V2: Removing PWL point (0.00299563,0)
V2: Removing PWL point (0.00299656,0)
V2: Removing PWL point (0.00299744,0)
V2: Removing PWL point (0.00299831,0)
V2: Removing PWL point (0.00299919,0)
V2: Removing PWL point (0.00300006,0)
V2: Removing PWL point (0.003001,0)
V2: Removing PWL point (0.00300188,0)
V2: Removing PWL point (0.00300275,0)
V2: Removing PWL point (0.00300362,0)
V2: Removing PWL point (0.00300456,0)
V2: Removing PWL point (0.00300544,0)
V2: Removing PWL point (0.00300631,0)
V2: Removing PWL point (0.00300719,0)
V2: Removing PWL point (0.00300806,0)
V2: Removing PWL point (0.003009,0)
V2: Removing PWL point (0.00300988,0)
V2: Removing PWL point (0.00301075,0)
V2: Removing PWL point (0.00301163,0)
V2: Removing PWL point (0.00301256,0)
V2: Removing PWL point (0.00301344,0)
V2: Removing PWL point (0.00301431,0)
V2: Removing PWL point (0.00301519,0)
V2: Removing PWL point (0.00301606,0)
V2: Removing PWL point (0.003017,0)
V2: Removing PWL point (0.00301788,0)
V2: Removing PWL point (0.00301875,0)
V2: Removing PWL point (0.00301963,0)
V2: Removing PWL point (0.00302056,0)
V2: Removing PWL point (0.00302144,0)
V2: Removing PWL point (0.00302231,0)
V2: Removing PWL point (0.00302319,0)
V2: Removing PWL point (0.00302406,0)
V2: Removing PWL point (0.003025,0)
V2: Removing PWL point (0.00302587,0)
V2: Removing PWL point (0.00302675,0)
V2: Removing PWL point (0.00302762,0)
V2: Removing PWL point (0.00302856,0)
V2: Removing PWL point (0.00302944,0)
V2: Removing PWL point (0.00303031,0)
V2: Removing PWL point (0.00303119,0)
V2: Removing PWL point (0.00303206,0)
V2: Removing PWL point (0.003033,0)
V2: Removing PWL point (0.00303388,0)
V2: Removing PWL point (0.00303475,0)
V2: Removing PWL point (0.00303563,0)
V2: Removing PWL point (0.00303656,0)
V2: Removing PWL point (0.00303744,0)
V2: Removing PWL point (0.00303831,0)
V2: Removing PWL point (0.00303919,0)
V2: Removing PWL point (0.00304006,0)
V2: Removing PWL point (0.00304094,0)
V2: Removing PWL point (0.00304175,0)
V2: Removing PWL point (0.00304263,0)
V2: Removing PWL point (0.00304344,0)
V2: Removing PWL point (0.00304431,0)
V2: Removing PWL point (0.00304513,0)
V2: Removing PWL point (0.003046,0)
V2: Removing PWL point (0.00304681,0)
V2: Removing PWL point (0.00304769,0)
V2: Removing PWL point (0.0030485,0)
V2: Removing PWL point (0.00304938,0)
V2: Removing PWL point (0.00305019,0)
V2: Removing PWL point (0.00305106,0)
V2: Removing PWL point (0.00305187,0)
V2: Removing PWL point (0.00305275,0)
V2: Removing PWL point (0.00305356,0)
V2: Removing PWL point (0.00305444,0)
V2: Removing PWL point (0.00305525,0)
V2: Removing PWL point (0.00305606,0)
V2: Removing PWL point (0.00305694,0)
V2: Removing PWL point (0.00305775,0)
V2: Removing PWL point (0.00305863,0)
V2: Removing PWL point (0.00305944,0)
V2: Removing PWL point (0.00306031,0)
V2: Removing PWL point (0.00306113,0)
V2: Removing PWL point (0.003062,0)
V2: Removing PWL point (0.00306281,0)
V2: Removing PWL point (0.00306369,0)
V2: Removing PWL point (0.0030645,0)
V2: Removing PWL point (0.00306538,0)
V2: Removing PWL point (0.00306619,0)
V2: Removing PWL point (0.00306706,0)
V2: Removing PWL point (0.00306787,0)
V2: Removing PWL point (0.00306875,0)
V2: Removing PWL point (0.00306956,0)
V2: Removing PWL point (0.00307044,0)
V2: Removing PWL point (0.00307125,0)
V2: Removing PWL point (0.00307206,0)
V2: Removing PWL point (0.00307294,0)
V2: Removing PWL point (0.00307375,0)
V2: Removing PWL point (0.00307463,0)
V2: Removing PWL point (0.00307544,0)
V2: Removing PWL point (0.00307631,0)
V2: Removing PWL point (0.00307713,0)
V2: Removing PWL point (0.003078,0)
V2: Removing PWL point (0.00307881,0)
V2: Removing PWL point (0.00307969,0)
V2: Removing PWL point (0.0030805,0)
V2: Removing PWL point (0.00308137,0)
V2: Removing PWL point (0.00308219,0)
V2: Removing PWL point (0.00308306,0)
V2: Removing PWL point (0.00308387,0)
V2: Removing PWL point (0.00308475,0)
V2: Removing PWL point (0.00308556,0)
V2: Removing PWL point (0.00308644,0)
V2: Removing PWL point (0.00308725,0)
V2: Removing PWL point (0.00308806,0)
V2: Removing PWL point (0.00308894,0)
V2: Removing PWL point (0.00308975,0)
V2: Removing PWL point (0.00309063,0)
V2: Removing PWL point (0.00309144,0)
V2: Removing PWL point (0.00309231,0)
V2: Removing PWL point (0.00309313,0)
V2: Removing PWL point (0.003094,0)
V2: Removing PWL point (0.00309481,0)
V2: Removing PWL point (0.00309569,0)
V2: Removing PWL point (0.0030965,0)
V2: Removing PWL point (0.00309737,0)
V2: Removing PWL point (0.00309819,0)
V2: Removing PWL point (0.00309906,0)
V2: Removing PWL point (0.00309988,0)
V2: Removing PWL point (0.00310075,0)
V2: Removing PWL point (0.00310156,0)
V2: Removing PWL point (0.00310244,0)
V2: Removing PWL point (0.00310325,0)
V2: Removing PWL point (0.00310406,0)
V2: Removing PWL point (0.00310494,0)
V2: Removing PWL point (0.00310575,0)
V2: Removing PWL point (0.00310663,0)
V2: Removing PWL point (0.00310744,0)
V2: Removing PWL point (0.00310831,0)
V2: Removing PWL point (0.00310912,0)
V2: Removing PWL point (0.00311,0)
V2: Removing PWL point (0.00311081,0)
V2: Removing PWL point (0.00311169,0)
V2: Removing PWL point (0.0031125,0)
V2: Removing PWL point (0.00311337,0)
V2: Removing PWL point (0.00311419,0)
V2: Removing PWL point (0.00311506,0)
V2: Removing PWL point (0.00311588,0)
V2: Removing PWL point (0.00311675,0)
V2: Removing PWL point (0.00311756,0)
V2: Removing PWL point (0.00311844,0)
V2: Removing PWL point (0.00311925,0)
V2: Removing PWL point (0.00312006,0)
V2: Removing PWL point (0.00312094,0)
V2: Removing PWL point (0.00312175,0)
V2: Removing PWL point (0.00312263,0)
V2: Removing PWL point (0.00312344,0)
V2: Removing PWL point (0.00312431,0)
V2: Removing PWL point (0.00312512,0)
V2: Removing PWL point (0.003126,0)
V2: Removing PWL point (0.00312681,0)
V2: Removing PWL point (0.00312769,0)
V2: Removing PWL point (0.0031285,0)
V2: Removing PWL point (0.00312938,0)
V2: Removing PWL point (0.00313019,0)
V2: Removing PWL point (0.00313106,0)
V2: Removing PWL point (0.00313188,0)
V2: Removing PWL point (0.00313275,0)
V2: Removing PWL point (0.00313356,0)
V2: Removing PWL point (0.00313444,0)
V2: Removing PWL point (0.00313525,0)
V2: Removing PWL point (0.00313606,0)
V2: Removing PWL point (0.00313694,0)
V2: Removing PWL point (0.00313775,0)
V2: Removing PWL point (0.00313862,0)
V2: Removing PWL point (0.00313944,0)
V2: Removing PWL point (0.00314031,0)
V2: Removing PWL point (0.00314112,0)
V2: Removing PWL point (0.003142,0)
V2: Removing PWL point (0.00314281,0)
V2: Removing PWL point (0.00314369,0)
V2: Removing PWL point (0.0031445,0)
V2: Removing PWL point (0.00314538,0)
V2: Removing PWL point (0.00314619,0)
V2: Removing PWL point (0.00314706,0)
V2: Removing PWL point (0.00314788,0)
V2: Removing PWL point (0.00314875,0)
V2: Removing PWL point (0.00314956,0)
V2: Removing PWL point (0.00315044,0)
V2: Removing PWL point (0.00315125,0)
V2: Removing PWL point (0.00315206,0)
V2: Removing PWL point (0.00315294,0)
V2: Removing PWL point (0.00315375,0)
V2: Removing PWL point (0.00315462,0)
V2: Removing PWL point (0.00315544,0)
V2: Removing PWL point (0.00315631,0)
V2: Removing PWL point (0.00315713,0)
V2: Removing PWL point (0.003158,0)
V2: Removing PWL point (0.00315881,0)
V2: Removing PWL point (0.00315969,0)
V2: Removing PWL point (0.0031605,0)
V2: Removing PWL point (0.00316138,0)
V2: Removing PWL point (0.00316219,0)
V2: Removing PWL point (0.00316306,0)
V2: Removing PWL point (0.00316388,0)
V2: Removing PWL point (0.00316475,0)
V2: Removing PWL point (0.00316556,0)
V2: Removing PWL point (0.00316644,0)
V2: Removing PWL point (0.00316725,0)
V2: Removing PWL point (0.00316806,0)
V2: Removing PWL point (0.00316894,0)
V2: Removing PWL point (0.00316975,0)
V2: Removing PWL point (0.00317062,0)
V2: Removing PWL point (0.00317144,0)
V2: Removing PWL point (0.00317231,0)
V2: Removing PWL point (0.00317313,0)
V2: Removing PWL point (0.003174,0)
V2: Removing PWL point (0.00317481,0)
V2: Removing PWL point (0.00317569,0)
V2: Removing PWL point (0.0031765,0)
V2: Removing PWL point (0.00317738,0)
V2: Removing PWL point (0.00317819,0)
V2: Removing PWL point (0.00317906,0)
V2: Removing PWL point (0.00317988,0)
V2: Removing PWL point (0.00318075,0)
V2: Removing PWL point (0.00318156,0)
V2: Removing PWL point (0.00318244,0)
V2: Removing PWL point (0.00318325,0)
V2: Removing PWL point (0.00318406,0)
V2: Removing PWL point (0.00318494,0)
V2: Removing PWL point (0.00318575,0)
V2: Removing PWL point (0.00318662,0)
V2: Removing PWL point (0.00318744,0)
V2: Removing PWL point (0.00318831,0)
V2: Removing PWL point (0.00318913,0)
V2: Removing PWL point (0.00319,0)
V2: Removing PWL point (0.00319081,0)
V2: Removing PWL point (0.00319169,0)
V2: Removing PWL point (0.0031925,0)
V2: Removing PWL point (0.00319338,0)
V2: Removing PWL point (0.00319419,0)
V2: Removing PWL point (0.00319506,0)
V2: Removing PWL point (0.00319587,0)
V2: Removing PWL point (0.00319675,0)
V2: Removing PWL point (0.00319756,0)
V2: Removing PWL point (0.00319844,0)
V2: Removing PWL point (0.00319925,0)
V2: Removing PWL point (0.00320006,0)
V2: Removing PWL point (0.00320088,0)
V2: Removing PWL point (0.00320169,0)
V2: Removing PWL point (0.0032025,0)
V2: Removing PWL point (0.00320331,0)
V2: Removing PWL point (0.00320406,0)
V2: Removing PWL point (0.00320487,0)
V2: Removing PWL point (0.00320569,0)
V2: Removing PWL point (0.0032065,0)
V2: Removing PWL point (0.00320731,0)
V2: Removing PWL point (0.00320806,0)
V2: Removing PWL point (0.00320887,0)
V2: Removing PWL point (0.00320969,0)
V2: Removing PWL point (0.0032105,0)
V2: Removing PWL point (0.00321131,0)
V2: Removing PWL point (0.00321206,0)
V2: Removing PWL point (0.00321288,0)
V2: Removing PWL point (0.00321369,0)
V2: Removing PWL point (0.0032145,0)
V2: Removing PWL point (0.00321531,0)
V2: Removing PWL point (0.00321606,0)
V2: Removing PWL point (0.00321688,0)
V2: Removing PWL point (0.00321769,0)
V2: Removing PWL point (0.0032185,0)
V2: Removing PWL point (0.00321931,0)
V2: Removing PWL point (0.00322006,0)
V2: Removing PWL point (0.00322088,0)
V2: Removing PWL point (0.00322169,0)
V2: Removing PWL point (0.0032225,0)
V2: Removing PWL point (0.00322331,0)
V2: Removing PWL point (0.00322406,0)
V2: Removing PWL point (0.00322487,0)
V2: Removing PWL point (0.00322569,0)
V2: Removing PWL point (0.0032265,0)
V2: Removing PWL point (0.00322731,0)
V2: Removing PWL point (0.00322806,0)
V2: Removing PWL point (0.00322888,0)
V2: Removing PWL point (0.00322969,0)
V2: Removing PWL point (0.0032305,0)
V2: Removing PWL point (0.00323131,0)
V2: Removing PWL point (0.00323206,0)
V2: Removing PWL point (0.00323288,0)
V2: Removing PWL point (0.00323369,0)
V2: Removing PWL point (0.0032345,0)
V2: Removing PWL point (0.00323531,0)
V2: Removing PWL point (0.00323606,0)
V2: Removing PWL point (0.00323688,0)
V2: Removing PWL point (0.00323769,0)
V2: Removing PWL point (0.0032385,0)
V2: Removing PWL point (0.00323931,0)
V2: Removing PWL point (0.00324006,0)
V2: Removing PWL point (0.00324087,0)
V2: Removing PWL point (0.00324169,0)
V2: Removing PWL point (0.0032425,0)
V2: Removing PWL point (0.00324331,0)
V2: Removing PWL point (0.00324406,0)
V2: Removing PWL point (0.00324487,0)
V2: Removing PWL point (0.00324569,0)
V2: Removing PWL point (0.0032465,0)
V2: Removing PWL point (0.00324731,0)
V2: Removing PWL point (0.00324806,0)
V2: Removing PWL point (0.00324888,0)
V2: Removing PWL point (0.00324969,0)
V2: Removing PWL point (0.0032505,0)
V2: Removing PWL point (0.00325131,0)
V2: Removing PWL point (0.00325206,0)
V2: Removing PWL point (0.00325288,0)
V2: Removing PWL point (0.00325369,0)
V2: Removing PWL point (0.0032545,0)
V2: Removing PWL point (0.00325531,0)
V2: Removing PWL point (0.00325606,0)
V2: Removing PWL point (0.00325687,0)
V2: Removing PWL point (0.00325769,0)
V2: Removing PWL point (0.0032585,0)
V2: Removing PWL point (0.00325931,0)
V2: Removing PWL point (0.00326006,0)
V2: Removing PWL point (0.00326087,0)
V2: Removing PWL point (0.00326169,0)
V2: Removing PWL point (0.0032625,0)
V2: Removing PWL point (0.00326331,0)
V2: Removing PWL point (0.00326406,0)
V2: Removing PWL point (0.00326488,0)
V2: Removing PWL point (0.00326569,0)
V2: Removing PWL point (0.0032665,0)
V2: Removing PWL point (0.00326731,0)
V2: Removing PWL point (0.00326806,0)
V2: Removing PWL point (0.00326888,0)
V2: Removing PWL point (0.00326969,0)
V2: Removing PWL point (0.0032705,0)
V2: Removing PWL point (0.00327131,0)
V2: Removing PWL point (0.00327206,0)
V2: Removing PWL point (0.00327288,0)
V2: Removing PWL point (0.00327369,0)
V2: Removing PWL point (0.0032745,0)
V2: Removing PWL point (0.00327531,0)
V2: Removing PWL point (0.00327606,0)
V2: Removing PWL point (0.00327687,0)
V2: Removing PWL point (0.00327769,0)
V2: Removing PWL point (0.0032785,0)
V2: Removing PWL point (0.00327931,0)
V2: Removing PWL point (0.00328006,0)
V2: Removing PWL point (0.00328087,0)
V2: Removing PWL point (0.00328169,0)
V2: Removing PWL point (0.0032825,0)
V2: Removing PWL point (0.00328331,0)
V2: Removing PWL point (0.00328406,0)
V2: Removing PWL point (0.00328488,0)
V2: Removing PWL point (0.00328569,0)
V2: Removing PWL point (0.0032865,0)
V2: Removing PWL point (0.00328731,0)
V2: Removing PWL point (0.00328806,0)
V2: Removing PWL point (0.00328888,0)
V2: Removing PWL point (0.00328969,0)
V2: Removing PWL point (0.0032905,0)
V2: Removing PWL point (0.00329131,0)
V2: Removing PWL point (0.00329206,0)
V2: Removing PWL point (0.00329287,0)
V2: Removing PWL point (0.00329369,0)
V2: Removing PWL point (0.0032945,0)
V2: Removing PWL point (0.00329531,0)
V2: Removing PWL point (0.00329606,0)
V2: Removing PWL point (0.00329687,0)
V2: Removing PWL point (0.00329769,0)
V2: Removing PWL point (0.0032985,0)
V2: Removing PWL point (0.00329931,0)
V2: Removing PWL point (0.00330006,0)
V2: Removing PWL point (0.00330088,0)
V2: Removing PWL point (0.00330169,0)
V2: Removing PWL point (0.0033025,0)
V2: Removing PWL point (0.00330331,0)
V2: Removing PWL point (0.00330406,0)
V2: Removing PWL point (0.00330488,0)
V2: Removing PWL point (0.00330569,0)
V2: Removing PWL point (0.0033065,0)
V2: Removing PWL point (0.00330731,0)
V2: Removing PWL point (0.00330806,0)
V2: Removing PWL point (0.00330888,0)
V2: Removing PWL point (0.00330969,0)
V2: Removing PWL point (0.0033105,0)
V2: Removing PWL point (0.00331131,0)
V2: Removing PWL point (0.00331206,0)
V2: Removing PWL point (0.00331287,0)
V2: Removing PWL point (0.00331369,0)
V2: Removing PWL point (0.0033145,0)
V2: Removing PWL point (0.00331531,0)
V2: Removing PWL point (0.00331606,0)
V2: Removing PWL point (0.00331687,0)
V2: Removing PWL point (0.00331769,0)
V2: Removing PWL point (0.0033185,0)
V2: Removing PWL point (0.00331931,0)
V2: Removing PWL point (0.00332006,0)
V2: Removing PWL point (0.00332088,0)
V2: Removing PWL point (0.00332169,0)
V2: Removing PWL point (0.0033225,0)
V2: Removing PWL point (0.00332331,0)
V2: Removing PWL point (0.00332406,0)
V2: Removing PWL point (0.00332488,0)
V2: Removing PWL point (0.00332569,0)
V2: Removing PWL point (0.0033265,0)
V2: Removing PWL point (0.00332731,0)
V2: Removing PWL point (0.00332806,0)
V2: Removing PWL point (0.00332887,0)
V2: Removing PWL point (0.00332969,0)
V2: Removing PWL point (0.0033305,0)
V2: Removing PWL point (0.00333131,0)
V2: Removing PWL point (0.00333206,0)
V2: Removing PWL point (0.00333287,0)
V2: Removing PWL point (0.00333369,0)
V2: Removing PWL point (0.0033345,0)
V2: Removing PWL point (0.00333531,0)
V2: Removing PWL point (0.00333606,0)
V2: Removing PWL point (0.00333688,0)
V2: Removing PWL point (0.00333769,0)
V2: Removing PWL point (0.0033385,0)
V2: Removing PWL point (0.00333931,0)
V2: Removing PWL point (0.00334006,0)
V2: Removing PWL point (0.00334088,0)
V2: Removing PWL point (0.00334169,0)
V2: Removing PWL point (0.0033425,0)
V2: Removing PWL point (0.00334331,0)
V2: Removing PWL point (0.00334406,0)
V2: Removing PWL point (0.00334488,0)
V2: Removing PWL point (0.00334569,0)
V2: Removing PWL point (0.0033465,0)
V2: Removing PWL point (0.00334731,0)
V2: Removing PWL point (0.00334806,0)
V2: Removing PWL point (0.00334887,0)
V2: Removing PWL point (0.00334969,0)
V2: Removing PWL point (0.0033505,0)
V2: Removing PWL point (0.00335131,0)
V2: Removing PWL point (0.00335206,0)
V2: Removing PWL point (0.00335288,0)
V2: Removing PWL point (0.00335369,0)
V2: Removing PWL point (0.0033545,0)
V2: Removing PWL point (0.00335531,0)
V2: Removing PWL point (0.00335606,0)
V2: Removing PWL point (0.00335688,0)
V2: Removing PWL point (0.00335769,0)
V2: Removing PWL point (0.0033585,0)
V2: Removing PWL point (0.00335931,0)
V2: Removing PWL point (0.00336006,0)
V2: Removing PWL point (0.00336088,0)
V2: Removing PWL point (0.00336163,0)
V2: Removing PWL point (0.00336237,0)
V2: Removing PWL point (0.00336312,0)
V2: Removing PWL point (0.00336388,0)
V2: Removing PWL point (0.00336469,0)
[...]
V2: Removing PWL point (0.0394913,3.3)
V2: Removing PWL point (0.0394929,3.3)
V2: Removing PWL point (0.0394945,3.3)
V2: Removing PWL point (0.0394961,3.3)
V2: Removing PWL point (0.0394977,3.3)
V2: Removing PWL point (0.0394993,3.3)
V2: Removing PWL point (0.0395009,3.3)
V2: Removing PWL point (0.0395025,3.3)
V2: Removing PWL point (0.0395041,3.3)
V2: Removing PWL point (0.0395057,3.3)
V2: Removing PWL point (0.0395073,3.3)
V2: Removing PWL point (0.0395089,3.3)
V2: Removing PWL point (0.0395105,3.3)
V2: Removing PWL point (0.0395121,3.3)
V2: Removing PWL point (0.0395137,3.3)
V2: Removing PWL point (0.0395153,3.3)
V2: Removing PWL point (0.0395169,3.3)
V2: Removing PWL point (0.0395185,3.3)
V2: Removing PWL point (0.0395201,3.3)
V2: Removing PWL point (0.0395219,3.3)
V2: Removing PWL point (0.0395236,3.3)
V2: Removing PWL point (0.0395254,3.3)
V2: Removing PWL point (0.0395272,3.3)
V2: Removing PWL point (0.039529,3.3)
V2: Removing PWL point (0.0395308,3.3)
V2: Removing PWL point (0.0395326,3.3)
V2: Removing PWL point (0.0395343,3.3)
V2: Removing PWL point (0.0395361,3.3)
V2: Removing PWL point (0.0395379,3.3)
V2: Removing PWL point (0.0395396,3.3)
V2: Removing PWL point (0.0395414,3.3)
V2: Removing PWL point (0.0395432,3.3)
V2: Removing PWL point (0.039545,3.3)
V2: Removing PWL point (0.0395467,3.3)
V2: Removing PWL point (0.0395486,3.3)
V2: Removing PWL point (0.0395503,3.3)
V2: Removing PWL point (0.0395521,3.3)
V2: Removing PWL point (0.0395539,3.3)
V2: Removing PWL point (0.0395556,3.3)
V2: Removing PWL point (0.0395574,3.3)
V2: Removing PWL point (0.0395592,3.3)
V2: Removing PWL point (0.039561,3.3)
V2: Removing PWL point (0.0395628,3.3)
V2: Removing PWL point (0.0395646,3.3)
V2: Removing PWL point (0.0395663,3.3)
V2: Removing PWL point (0.0395681,3.3)
V2: Removing PWL point (0.0395699,3.3)
V2: Removing PWL point (0.0395716,3.3)
V2: Removing PWL point (0.0395734,3.3)
V2: Removing PWL point (0.0395752,3.3)
V2: Removing PWL point (0.039577,3.3)
V2: Removing PWL point (0.0395788,3.3)
V2: Removing PWL point (0.0395806,3.3)
V2: Removing PWL point (0.0395823,3.3)
V2: Removing PWL point (0.0395841,3.3)
V2: Removing PWL point (0.0395859,3.3)
V2: Removing PWL point (0.0395876,3.3)
V2: Removing PWL point (0.0395894,3.3)
V2: Removing PWL point (0.0395912,3.3)
V2: Removing PWL point (0.039593,3.3)
V2: Removing PWL point (0.0395947,3.3)
V2: Removing PWL point (0.0395966,3.3)
V2: Removing PWL point (0.0395983,3.3)
V2: Removing PWL point (0.0396001,3.3)
V2: Removing PWL point (0.0396019,3.3)
V2: Removing PWL point (0.0396036,3.3)
V2: Removing PWL point (0.0396054,3.3)
V2: Removing PWL point (0.0396072,3.3)
V2: Removing PWL point (0.039609,3.3)
V2: Removing PWL point (0.0396108,3.3)
V2: Removing PWL point (0.0396126,3.3)
V2: Removing PWL point (0.0396143,3.3)
V2: Removing PWL point (0.0396161,3.3)
V2: Removing PWL point (0.0396179,3.3)
V2: Removing PWL point (0.0396196,3.3)
V2: Removing PWL point (0.0396214,3.3)
V2: Removing PWL point (0.0396232,3.3)
V2: Removing PWL point (0.039625,3.3)
V2: Removing PWL point (0.0396268,3.3)
V2: Removing PWL point (0.0396286,3.3)
V2: Removing PWL point (0.0396303,3.3)
V2: Removing PWL point (0.0396321,3.3)
V2: Removing PWL point (0.0396339,3.3)
V2: Removing PWL point (0.0396356,3.3)
V2: Removing PWL point (0.0396374,3.3)
V2: Removing PWL point (0.0396392,3.3)
V2: Removing PWL point (0.039641,3.3)
V2: Removing PWL point (0.0396427,3.3)
V2: Removing PWL point (0.0396446,3.3)
V2: Removing PWL point (0.0396463,3.3)
V2: Removing PWL point (0.0396481,3.3)
V2: Removing PWL point (0.0396499,3.3)
V2: Removing PWL point (0.0396516,3.3)
V2: Removing PWL point (0.0396534,3.3)
V2: Removing PWL point (0.0396552,3.3)
V2: Removing PWL point (0.039657,3.3)
V2: Removing PWL point (0.0396588,3.3)
V2: Removing PWL point (0.0396606,3.3)
V2: Removing PWL point (0.0396623,3.3)
V2: Removing PWL point (0.0396641,3.3)
V2: Removing PWL point (0.0396659,3.3)
V2: Removing PWL point (0.0396676,3.3)
V2: Removing PWL point (0.0396694,3.3)
V2: Removing PWL point (0.0396712,3.3)
V2: Removing PWL point (0.039673,3.3)
V2: Removing PWL point (0.0396748,3.3)
V2: Removing PWL point (0.0396766,3.3)
V2: Removing PWL point (0.0396783,3.3)
V2: Removing PWL point (0.0396801,3.3)
V2: Removing PWL point (0.0396821,3.3)
V2: Removing PWL point (0.0396841,3.3)
V2: Removing PWL point (0.0396861,3.3)
V2: Removing PWL point (0.0396881,3.3)
V2: Removing PWL point (0.0396901,3.3)
V2: Removing PWL point (0.0396921,3.3)
V2: Removing PWL point (0.0396941,3.3)
V2: Removing PWL point (0.0396961,3.3)
V2: Removing PWL point (0.0396981,3.3)
V2: Removing PWL point (0.0397001,3.3)
V2: Removing PWL point (0.0397021,3.3)
V2: Removing PWL point (0.0397041,3.3)
V2: Removing PWL point (0.0397061,3.3)
V2: Removing PWL point (0.0397081,3.3)
V2: Removing PWL point (0.0397101,3.3)
V2: Removing PWL point (0.0397121,3.3)
V2: Removing PWL point (0.0397141,3.3)
V2: Removing PWL point (0.0397161,3.3)
V2: Removing PWL point (0.0397181,3.3)
V2: Removing PWL point (0.0397201,3.3)
V2: Removing PWL point (0.0397221,3.3)
V2: Removing PWL point (0.0397241,3.3)
V2: Removing PWL point (0.0397261,3.3)
V2: Removing PWL point (0.0397281,3.3)
V2: Removing PWL point (0.0397301,3.3)
V2: Removing PWL point (0.0397321,3.3)
V2: Removing PWL point (0.0397341,3.3)
V2: Removing PWL point (0.0397361,3.3)
V2: Removing PWL point (0.0397381,3.3)
V2: Removing PWL point (0.0397401,3.3)
V2: Removing PWL point (0.0397421,3.3)
V2: Removing PWL point (0.0397441,3.3)
V2: Removing PWL point (0.0397461,3.3)
V2: Removing PWL point (0.0397481,3.3)
V2: Removing PWL point (0.0397501,3.3)
V2: Removing PWL point (0.0397521,3.3)
V2: Removing PWL point (0.0397541,3.3)
V2: Removing PWL point (0.0397561,3.3)
V2: Removing PWL point (0.0397581,3.3)
V2: Removing PWL point (0.0397601,3.3)
V2: Removing PWL point (0.0397621,3.3)
V2: Removing PWL point (0.0397641,3.3)
V2: Removing PWL point (0.0397661,3.3)
V2: Removing PWL point (0.0397681,3.3)
V2: Removing PWL point (0.0397701,3.3)
V2: Removing PWL point (0.0397721,3.3)
V2: Removing PWL point (0.0397741,3.3)
V2: Removing PWL point (0.0397761,3.3)
V2: Removing PWL point (0.0397781,3.3)
V2: Removing PWL point (0.0397801,3.3)
V2: Removing PWL point (0.0397821,3.3)
V2: Removing PWL point (0.0397841,3.3)
V2: Removing PWL point (0.0397861,3.3)
V2: Removing PWL point (0.0397881,3.3)
V2: Removing PWL point (0.0397901,3.3)
V2: Removing PWL point (0.0397921,3.3)
V2: Removing PWL point (0.0397941,3.3)
V2: Removing PWL point (0.0397961,3.3)
V2: Removing PWL point (0.0397981,3.3)
V2: Removing PWL point (0.0398001,3.3)
V2: Removing PWL point (0.0398021,3.3)
V2: Removing PWL point (0.0398041,3.3)
V2: Removing PWL point (0.0398061,3.3)
V2: Removing PWL point (0.0398081,3.3)
V2: Removing PWL point (0.0398101,3.3)
V2: Removing PWL point (0.0398121,3.3)
V2: Removing PWL point (0.0398141,3.3)
V2: Removing PWL point (0.0398161,3.3)
V2: Removing PWL point (0.0398181,3.3)
V2: Removing PWL point (0.0398201,3.3)
V2: Removing PWL point (0.0398221,3.3)
V2: Removing PWL point (0.0398241,3.3)
V2: Removing PWL point (0.0398261,3.3)
V2: Removing PWL point (0.0398281,3.3)
V2: Removing PWL point (0.0398301,3.3)
V2: Removing PWL point (0.0398321,3.3)
V2: Removing PWL point (0.0398341,3.3)
V2: Removing PWL point (0.0398361,3.3)
V2: Removing PWL point (0.0398381,3.3)
V2: Removing PWL point (0.0398401,3.3)
V2: Removing PWL point (0.0398424,3.3)
V2: Removing PWL point (0.0398447,3.3)
V2: Removing PWL point (0.0398469,3.3)
V2: Removing PWL point (0.0398493,3.3)
V2: Removing PWL point (0.0398515,3.3)
V2: Removing PWL point (0.0398538,3.3)
V2: Removing PWL point (0.0398561,3.3)
V2: Removing PWL point (0.0398584,3.3)
V2: Removing PWL point (0.0398607,3.3)
V2: Removing PWL point (0.0398629,3.3)
V2: Removing PWL point (0.0398652,3.3)
V2: Removing PWL point (0.0398675,3.3)
V2: Removing PWL point (0.0398698,3.3)
V2: Removing PWL point (0.0398721,3.3)
V2: Removing PWL point (0.0398744,3.3)
V2: Removing PWL point (0.0398767,3.3)
V2: Removing PWL point (0.0398789,3.3)
V2: Removing PWL point (0.0398813,3.3)
V2: Removing PWL point (0.0398835,3.3)
V2: Removing PWL point (0.0398858,3.3)
V2: Removing PWL point (0.0398881,3.3)
V2: Removing PWL point (0.0398904,3.3)
V2: Removing PWL point (0.0398927,3.3)
V2: Removing PWL point (0.0398949,3.3)
V2: Removing PWL point (0.0398973,3.3)
V2: Removing PWL point (0.0398995,3.3)
V2: Removing PWL point (0.0399018,3.3)
V2: Removing PWL point (0.0399041,3.3)
V2: Removing PWL point (0.0399064,3.3)
V2: Removing PWL point (0.0399087,3.3)
V2: Removing PWL point (0.0399109,3.3)
V2: Removing PWL point (0.0399132,3.3)
V2: Removing PWL point (0.0399155,3.3)
V2: Removing PWL point (0.0399178,3.3)
V2: Removing PWL point (0.0399201,3.3)
V2: Removing PWL point (0.0399224,3.3)
V2: Removing PWL point (0.0399247,3.3)
V2: Removing PWL point (0.0399269,3.3)
V2: Removing PWL point (0.0399292,3.3)
V2: Removing PWL point (0.0399315,3.3)
V2: Removing PWL point (0.0399338,3.3)
V2: Removing PWL point (0.0399361,3.3)
V2: Removing PWL point (0.0399384,3.3)
V2: Removing PWL point (0.0399407,3.3)
V2: Removing PWL point (0.0399429,3.3)
V2: Removing PWL point (0.0399453,3.3)
V2: Removing PWL point (0.0399475,3.3)
V2: Removing PWL point (0.0399498,3.3)
V2: Removing PWL point (0.0399521,3.3)
V2: Removing PWL point (0.0399544,3.3)
V2: Removing PWL point (0.0399567,3.3)
V2: Removing PWL point (0.0399589,3.3)
V2: Removing PWL point (0.0399612,3.3)
V2: Removing PWL point (0.0399635,3.3)
V2: Removing PWL point (0.0399658,3.3)
V2: Removing PWL point (0.0399681,3.3)
V2: Removing PWL point (0.0399704,3.3)
V2: Removing PWL point (0.0399727,3.3)
V2: Removing PWL point (0.0399749,3.3)
V2: Removing PWL point (0.0399772,3.3)
V2: Removing PWL point (0.0399795,3.3)
V2: Removing PWL point (0.0399818,3.3)
V2: Removing PWL point (0.0399841,3.3)
V2: Removing PWL point (0.0399864,3.3)
V2: Removing PWL point (0.0399887,3.3)
V2: Removing PWL point (0.0399909,3.3)
V2: Removing PWL point (0.0399933,3.3)
V2: Removing PWL point (0.0399955,3.3)
V2: Removing PWL point (0.0399978,3.3)
V2: Removing PWL point (0.0400001,3.3)
V2: Removing PWL point (0.0400027,3.3)
V2: Removing PWL point (0.0400054,3.3)
V2: Removing PWL point (0.0400081,3.3)
V2: Removing PWL point (0.0400107,3.3)
V2: Removing PWL point (0.0400134,3.3)
V2: Removing PWL point (0.0400161,3.3)
V2: Removing PWL point (0.0400187,3.3)
V2: Removing PWL point (0.0400214,3.3)
V2: Removing PWL point (0.0400241,3.3)
V2: Removing PWL point (0.0400268,3.3)
V2: Removing PWL point (0.0400294,3.3)
V2: Removing PWL point (0.0400321,3.3)
V2: Removing PWL point (0.0400348,3.3)
V2: Removing PWL point (0.0400374,3.3)
V2: Removing PWL point (0.0400401,3.3)
V2: Removing PWL point (0.0400428,3.3)
V2: Removing PWL point (0.0400454,3.3)
V2: Removing PWL point (0.0400481,3.3)
V2: Removing PWL point (0.0400508,3.3)
V2: Removing PWL point (0.0400534,3.3)
V2: Removing PWL point (0.0400561,3.3)
V2: Removing PWL point (0.0400587,3.3)
V2: Removing PWL point (0.0400614,3.3)
V2: Removing PWL point (0.0400641,3.3)
V2: Removing PWL point (0.0400667,3.3)
V2: Removing PWL point (0.0400694,3.3)
V2: Removing PWL point (0.0400721,3.3)
V2: Removing PWL point (0.0400747,3.3)
V2: Removing PWL point (0.0400774,3.3)
V2: Removing PWL point (0.0400801,3.3)
V2: Removing PWL point (0.0400828,3.3)
V2: Removing PWL point (0.0400854,3.3)
V2: Removing PWL point (0.0400881,3.3)
V2: Removing PWL point (0.0400908,3.3)
V2: Removing PWL point (0.0400934,3.3)
V2: Removing PWL point (0.0400961,3.3)
V2: Removing PWL point (0.0400988,3.3)
V2: Removing PWL point (0.0401014,3.3)
V2: Removing PWL point (0.0401041,3.3)
V2: Removing PWL point (0.0401067,3.3)
V2: Removing PWL point (0.0401094,3.3)
V2: Removing PWL point (0.0401121,3.3)
V2: Removing PWL point (0.0401147,3.3)
V2: Removing PWL point (0.0401174,3.3)
V2: Removing PWL point (0.0401201,3.3)
V2: Removing PWL point (0.0401227,3.3)
V2: Removing PWL point (0.0401254,3.3)
V2: Removing PWL point (0.0401281,3.3)
V2: Removing PWL point (0.0401308,3.3)
V2: Removing PWL point (0.0401334,3.3)
V2: Removing PWL point (0.0401361,3.3)
V2: Removing PWL point (0.0401388,3.3)
V2: Removing PWL point (0.0401414,3.3)
V2: Removing PWL point (0.0401441,3.3)
V2: Removing PWL point (0.0401468,3.3)
V2: Removing PWL point (0.0401494,3.3)
V2: Removing PWL point (0.0401521,3.3)
V2: Removing PWL point (0.0401548,3.3)
V2: Removing PWL point (0.0401574,3.3)
V2: Removing PWL point (0.0401601,3.3)
V2: Removing PWL point (0.0401633,3.3)
V2: Removing PWL point (0.0401665,3.3)
V2: Removing PWL point (0.0401697,3.3)
V2: Removing PWL point (0.0401729,3.3)
V2: Removing PWL point (0.0401761,3.3)
V2: Removing PWL point (0.0401793,3.3)
V2: Removing PWL point (0.0401825,3.3)
V2: Removing PWL point (0.0401857,3.3)
V2: Removing PWL point (0.0401889,3.3)
V2: Removing PWL point (0.0401921,3.3)
V2: Removing PWL point (0.0401953,3.3)
V2: Removing PWL point (0.0401985,3.3)
V2: Removing PWL point (0.0402017,3.3)
V2: Removing PWL point (0.0402049,3.3)
V2: Removing PWL point (0.0402081,3.3)
V2: Removing PWL point (0.0402113,3.3)
V2: Removing PWL point (0.0402145,3.3)
V2: Removing PWL point (0.0402177,3.3)
V2: Removing PWL point (0.0402209,3.3)
V2: Removing PWL point (0.0402241,3.3)
V2: Removing PWL point (0.0402273,3.3)
V2: Removing PWL point (0.0402305,3.3)
V2: Removing PWL point (0.0402337,3.3)
V2: Removing PWL point (0.0402369,3.3)
V2: Removing PWL point (0.0402401,3.3)
V2: Removing PWL point (0.0402433,3.3)
V2: Removing PWL point (0.0402465,3.3)
V2: Removing PWL point (0.0402497,3.3)
V2: Removing PWL point (0.0402529,3.3)
V2: Removing PWL point (0.0402561,3.3)
V2: Removing PWL point (0.0402593,3.3)
V2: Removing PWL point (0.0402625,3.3)
V2: Removing PWL point (0.0402657,3.3)
V2: Removing PWL point (0.0402689,3.3)
V2: Removing PWL point (0.0402721,3.3)
V2: Removing PWL point (0.0402753,3.3)
V2: Removing PWL point (0.0402785,3.3)
V2: Removing PWL point (0.0402817,3.3)
V2: Removing PWL point (0.0402849,3.3)
V2: Removing PWL point (0.0402881,3.3)
V2: Removing PWL point (0.0402913,3.3)
V2: Removing PWL point (0.0402945,3.3)
V2: Removing PWL point (0.0402977,3.3)
V2: Removing PWL point (0.0403009,3.3)
V2: Removing PWL point (0.0403041,3.3)
V2: Removing PWL point (0.0403073,3.3)
V2: Removing PWL point (0.0403105,3.3)
V2: Removing PWL point (0.0403137,3.3)
V2: Removing PWL point (0.0403169,3.3)
V2: Removing PWL point (0.0403201,3.3)
V2: Removing PWL point (0.0403241,3.3)
V2: Removing PWL point (0.0403281,3.3)
V2: Removing PWL point (0.0403321,3.3)
V2: Removing PWL point (0.0403361,3.3)
V2: Removing PWL point (0.0403401,3.3)
V2: Removing PWL point (0.0403441,3.3)
V2: Removing PWL point (0.0403481,3.3)
V2: Removing PWL point (0.0403521,3.3)
V2: Removing PWL point (0.0403561,3.3)
V2: Removing PWL point (0.0403601,3.3)
V2: Removing PWL point (0.0403641,3.3)
V2: Removing PWL point (0.0403681,3.3)
V2: Removing PWL point (0.0403721,3.3)
V2: Removing PWL point (0.0403761,3.3)
V2: Removing PWL point (0.0403801,3.3)
V2: Removing PWL point (0.0403841,3.3)
V2: Removing PWL point (0.0403881,3.3)
V2: Removing PWL point (0.0403921,3.3)
V2: Removing PWL point (0.0403961,3.3)
V2: Removing PWL point (0.0404001,3.3)
V2: Removing PWL point (0.0404041,3.3)
V2: Removing PWL point (0.0404081,3.3)
V2: Removing PWL point (0.0404121,3.3)
V2: Removing PWL point (0.0404161,3.3)
V2: Removing PWL point (0.0404201,3.3)
V2: Removing PWL point (0.0404241,3.3)
V2: Removing PWL point (0.0404281,3.3)
V2: Removing PWL point (0.0404321,3.3)
V2: Removing PWL point (0.0404361,3.3)
V2: Removing PWL point (0.0404401,3.3)
V2: Removing PWL point (0.0404441,3.3)
V2: Removing PWL point (0.0404481,3.3)
V2: Removing PWL point (0.0404521,3.3)
V2: Removing PWL point (0.0404561,3.3)
V2: Removing PWL point (0.0404601,3.3)
V2: Removing PWL point (0.0404641,3.3)
V2: Removing PWL point (0.0404681,3.3)
V2: Removing PWL point (0.0404721,3.3)
V2: Removing PWL point (0.0404761,3.3)
V2: Removing PWL point (0.0404801,3.3)
V2: Removing PWL point (0.0404854,3.3)
V2: Removing PWL point (0.0404907,3.3)
V2: Removing PWL point (0.0404961,3.3)
V2: Removing PWL point (0.0405014,3.3)
V2: Removing PWL point (0.0405068,3.3)
V2: Removing PWL point (0.0405121,3.3)
V2: Removing PWL point (0.0405174,3.3)
V2: Removing PWL point (0.0405228,3.3)
V2: Removing PWL point (0.0405281,3.3)
V2: Removing PWL point (0.0405334,3.3)
V2: Removing PWL point (0.0405387,3.3)
V2: Removing PWL point (0.0405441,3.3)
V2: Removing PWL point (0.0405494,3.3)
V2: Removing PWL point (0.0405548,3.3)
V2: Removing PWL point (0.0405601,3.3)
V2: Removing PWL point (0.0405654,3.3)
V2: Removing PWL point (0.0405708,3.3)
V2: Removing PWL point (0.0405761,3.3)
V2: Removing PWL point (0.0405814,3.3)
V2: Removing PWL point (0.0405867,3.3)
V2: Removing PWL point (0.0405921,3.3)
V2: Removing PWL point (0.0405974,3.3)
V2: Removing PWL point (0.0406028,3.3)
V2: Removing PWL point (0.0406081,3.3)
V2: Removing PWL point (0.0406134,3.3)
V2: Removing PWL point (0.0406188,3.3)
V2: Removing PWL point (0.0406241,3.3)
V2: Removing PWL point (0.0406294,3.3)
V2: Removing PWL point (0.0406347,3.3)
V2: Removing PWL point (0.0406401,3.3)
V2: Removing PWL point (0.0406481,3.3)
V2: Removing PWL point (0.0406561,3.3)
V2: Removing PWL point (0.0406641,3.3)
V2: Removing PWL point (0.0406721,3.3)
V2: Removing PWL point (0.0406801,3.3)
V2: Removing PWL point (0.0406881,3.3)
V2: Removing PWL point (0.0406961,3.3)
V2: Removing PWL point (0.0407041,3.3)
V2: Removing PWL point (0.0407121,3.3)
V2: Removing PWL point (0.0407201,3.3)
V2: Removing PWL point (0.0407281,3.3)
V2: Removing PWL point (0.0407361,3.3)
V2: Removing PWL point (0.0407441,3.3)
V2: Removing PWL point (0.0407521,3.3)
V2: Removing PWL point (0.0407601,3.3)
V2: Removing PWL point (0.0407681,3.3)
V2: Removing PWL point (0.0407761,3.3)
V2: Removing PWL point (0.0407841,3.3)
V2: Removing PWL point (0.0407921,3.3)
V2: Removing PWL point (0.0408001,3.3)
V2: Removing PWL point (0.0408161,3.3)
V2: Removing PWL point (0.0408321,3.3)
V2: Removing PWL point (0.0408481,3.3)
V2: Removing PWL point (0.0408641,3.3)
V2: Removing PWL point (0.0408801,3.3)
V2: Removing PWL point (0.0408961,3.3)
V2: Removing PWL point (0.0409121,3.3)
V2: Removing PWL point (0.0409281,3.3)
V2: Removing PWL point (0.0409441,3.3)
Direct Newton iteration failed to find .op point.  (Use ".option noopiter" to skip.)
Starting Gmin stepping
Gmin = 10
Gmin = 1.07374
vernier = 0.5
vernier = 0.666667
Gmin = 0.375229
vernier = 0.888888
vernier = 1
Gmin = 0.0567082
Gmin = 0.006089
Gmin = 0.000653801
Gmin = 7.02013e-005
Gmin = 7.53781e-006
Gmin = 8.09366e-007
vernier = 0.5
vernier = 0.25
Gmin = 1.69736e-007
vernier = 0.125
vernier = 0.0625
vernier = 0.03125
vernier = 0.015625
vernier = 0.0078125
vernier = 0.00390625
vernier = 0.00195313
Gmin = 1.69488e-007
vernier = 0.00260417
vernier = 0.00347222
Gmin = 1.6837e-007
vernier = 0.00462963
Gmin = 1.66626e-007
vernier = 0.00617283
vernier = 0.00823044
Gmin = 1.6374e-007
vernier = 0.0109739
vernier = 0.0146319
Gmin = 1.59243e-007
vernier = 0.0195092
Gmin = 1.52419e-007
vernier = 0.0260122
vernier = 0.034683
Gmin = 1.41628e-007
vernier = 0.046244
vernier = 0.0616586
Gmin = 1.26012e-007
vernier = 0.0822114
Gmin = 1.04912e-007
vernier = 0.109615
vernier = 0.146154
Gmin = 7.72745e-008
vernier = 0.194871
vernier = 0.259828
Gmin = 4.76704e-008
vernier = 0.346438
Gmin = 2.25154e-008
vernier = 0.461917
vernier = 0.615889
Gmin = 6.59067e-009
vernier = 0.821185
vernier = 1
Gmin = 1.03313e-009
Gmin = 1.10932e-010
Gmin = 1.19112e-011
Gmin = 1.27895e-012
Gmin = 1.37327e-013
Gmin = 0
Gmin stepping succeeded in finding the operating point.


Date: Mon Feb 10 23:39:03 2020
Total elapsed time: 91.375 seconds.

tnom = 27
temp = 27
method = modified trap
totiter = 10649870
traniter = 10647899
tranpoints = 5304743
accept = 4486057
rejected = 818686
matrix size = 16
fillins = 4
solver = Normal
Matrix Compiler1: 1.29 KB object code size  0.3/0.2/[0.1]
Matrix Compiler2: 1.57 KB object code size  0.2/0.2/[0.1]

